!-Generator IDFEditor 1.43
!-Option OriginalOrderTop UseSpecialFormat

!-NOTE: All comments with '!-' are ignored by the IDFEditor and are generated automatically.
!-      Use '!' comments if they need to be retained when using the IDFEditor.

! CIBSE TM33 Case G9.1thru G9.4 -Infiltration and Ventilation
! Basic file description: Four zone building with all surfaces different
!                         Based on building used in Test G7 but with 6m ceiling height
! Author:   R. H. Henninger,  GARD Analytics, Inc.
!           Lixing Gu, Florida Solar Energy Center
! Date:     Jan 2, 2013
! Run:
! Building: Fictional 4 zone building
! Internal: None.
! System:   None.
! Plant:    None.
Version,7.2;

Site:Location,
    LONDON,                  !- Name
    51.48,                   !- Latitude {deg}
    -0.45,                   !- Longitude {deg}
    0,                       !- Time Zone {hr}
    24.0;                    !- Elevation {m}

RunPeriod,
    ,                        !- Name
    1,                       !- Begin Month
    1,                       !- Begin Day of Month
    1,                       !- End Month
    31,                      !- End Day of Month
    ,                        !- Day of Week for Start Day
    ,                        !- Use Weather File Holidays and Special Days
    ,                        !- Use Weather File Daylight Saving Period
    ,                        !- Apply Weekend Holiday Rule
    ,                        !- Use Weather File Rain Indicators
    ;                        !- Use Weather File Snow Indicators

RunPeriod,
    ,                        !- Name
    2,                       !- Begin Month
    1,                       !- Begin Day of Month
    2,                       !- End Month
    28,                      !- End Day of Month
    ,                        !- Day of Week for Start Day
    ,                        !- Use Weather File Holidays and Special Days
    ,                        !- Use Weather File Daylight Saving Period
    ,                        !- Apply Weekend Holiday Rule
    ,                        !- Use Weather File Rain Indicators
    ;                        !- Use Weather File Snow Indicators

RunPeriod,
    ,                        !- Name
    3,                       !- Begin Month
    1,                       !- Begin Day of Month
    3,                       !- End Month
    31,                      !- End Day of Month
    ,                        !- Day of Week for Start Day
    ,                        !- Use Weather File Holidays and Special Days
    ,                        !- Use Weather File Daylight Saving Period
    ,                        !- Apply Weekend Holiday Rule
    ,                        !- Use Weather File Rain Indicators
    ;                        !- Use Weather File Snow Indicators

RunPeriod,
    ,                        !- Name
    4,                       !- Begin Month
    1,                       !- Begin Day of Month
    4,                       !- End Month
    30,                      !- End Day of Month
    ,                        !- Day of Week for Start Day
    ,                        !- Use Weather File Holidays and Special Days
    ,                        !- Use Weather File Daylight Saving Period
    ,                        !- Apply Weekend Holiday Rule
    ,                        !- Use Weather File Rain Indicators
    ;                        !- Use Weather File Snow Indicators

Material,
    BRICK,                   !- Name
    Smooth,                  !- Roughness
    0.115,                   !- Thickness {m}
    0.99,                    !- Conductivity {W/m-K}
    1800.,                   !- Density {kg/m3}
    850.,                    !- Specific Heat {J/kg-K}
    0.9,                     !- Thermal Absorptance
    0.8,                     !- Solar Absorptance
    0.8;                     !- Visible Absorptance

Material,
    INSULATION 1,            !- Name
    Smooth,                  !- Roughness
    0.060,                   !- Thickness {m}
    0.04,                    !- Conductivity {W/m-K}
    30.,                     !- Density {kg/m3}
    850,                     !- Specific Heat {J/kg-K}
    0.000001,                !- Thermal Absorptance
    0.000001,                !- Solar Absorptance
    0.000001;                !- Visible Absorptance

Material,
    MASONRY,                 !- Name
    Smooth,                  !- Roughness
    0.175,                   !- Thickness {m}
    0.79,                    !- Conductivity {W/m-K}
    1600.,                   !- Density {kg/m3}
    850.,                    !- Specific Heat {J/kg-K}
    0.000001,                !- Thermal Absorptance
    0.000001,                !- Solar Absorptance
    0.000001;                !- Visible Absorptance

Material,
    PLASTER 1,               !- Name
    Smooth,                  !- Roughness
    0.015,                   !- Thickness {m}
    0.70,                    !- Conductivity {W/m-K}
    1400.,                   !- Density {kg/m3}
    850.,                    !- Specific Heat {J/kg-K}
    0.9,                     !- Thermal Absorptance
    0.3,                     !- Solar Absorptance
    0.3;                     !- Visible Absorptance

! Material layer names follow:
Construction,
    EXT WALL,                !- Name
    BRICK,                   !- Outside Layer
    INSULATION 1,            !- Layer 2
    MASONRY,                 !- Layer 3
    PLASTER 1;               !- Layer 4

Material,
    PLASTER 2,               !- Name
    Smooth,                  !- Roughness
    0.012,                   !- Thickness {m}
    0.21,                    !- Conductivity {W/m-K}
    900.,                    !- Density {kg/m3}
    850.,                    !- Specific Heat {J/kg-K}
    0.9,                     !- Thermal Absorptance
    0.3,                     !- Solar Absorptance
    0.3;                     !- Visible Absorptance

! Material layer names follow:
Construction,
    INT WALL 2,              !- Name
    PLASTER 2,               !- Outside Layer
    MASONRY,                 !- Layer 2
    PLASTER 2;               !- Layer 3

Material,
    INSULATION 2,            !- Name
    Smooth,                  !- Roughness
    1.000,                   !- Thickness {m}
    0.04,                    !- Conductivity {W/m-K}
    50.,                     !- Density {kg/m3}
    850.,                    !- Specific Heat {J/kg-K}
    0.000001,                !- Thermal Absorptance
    0.000001,                !- Solar Absorptance
    0.000001;                !- Visible Absorptance

Material,
    CONCRETE,                !- Name
    Smooth,                  !- Roughness
    0.200,                   !- Thickness {m}
    2.1,                     !- Conductivity {W/m-K}
    2400.,                   !- Density {kg/m3}
    850.,                    !- Specific Heat {J/kg-K}
    0.9,                     !- Thermal Absorptance
    0.8,                     !- Solar Absorptance
    0.8;                     !- Visible Absorptance

! Material layer names follow:
Construction,
    FLOOR 1,                 !- Name
    INSULATION 2,            !- Outside Layer
    CONCRETE;                !- Layer 2

Material,
    TILES,                   !- Name
    Smooth,                  !- Roughness
    0.004,                   !- Thickness {m}
    0.23,                    !- Conductivity {W/m-K}
    1500.,                   !- Density {kg/m3}
    1300.,                   !- Specific Heat {J/kg-K}
    0.9,                     !- Thermal Absorptance
    0.9,                     !- Solar Absorptance
    0.9;                     !- Visible Absorptance

Material,
    CONCRETE-ROOF,           !- Name
    Smooth,                  !- Roughness
    0.200,                   !- Thickness {m}
    2.1,                     !- Conductivity {W/m-K}
    2400.,                   !- Density {kg/m3}
    850.,                    !- Specific Heat {J/kg-K}
    0.9,                     !- Thermal Absorptance
    0.3,                     !- Solar Absorptance
    0.3;                     !- Visible Absorptance

! Material layer names follow:
Construction,
    ROOF 1,                  !- Name
    TILES,                   !- Outside Layer
    INSULATION 2,            !- Layer 2
    CONCRETE-ROOF;           !- Layer 3

Timestep,6;

Building,
    Case G9.1 thru G9.4,               !- Name
    0,                       !- North Axis {deg}
    Country,                 !- Terrain
    3.9999999E-02,           !- Loads Convergence Tolerance Value
    4.0000002E-03,           !- Temperature Convergence Tolerance Value {deltaC}
    FullInteriorAndExterior, !- Solar Distribution
    ,                        !- Maximum Number of Warmup Days
    6;                       !- Minimum Number of Warmup Days

Zone,
    ZONE ONE,                !- Name
    0,                       !- Direction of Relative North {deg}
    0, 0, 0,                            !- X,Y,Z  {m}
    1,                       !- Type
    1,                       !- Multiplier
    6.00,                    !- Ceiling Height {m}
    288.0;                   !- Volume {m3}

ZoneCapacitanceMultiplier:ResearchSpecial,1,1,1,1.0;

GlobalGeometryRules,
    UpperLeftCorner,         !- Starting Vertex Position
    Counterclockwise,        !- Vertex Entry Direction
    WorldCoordinateSystem;   !- Coordinate System

BuildingSurface:Detailed,
    ZONE ONE SURFACE NORTH,  !- Name
    Wall,                    !- Surface Type
    EXT WALL,                !- Construction Name
    ZONE ONE,                !- Zone Name
    Outdoors,                !- Outside Boundary Condition
    ,                        !- Outside Boundary Condition Object
    NoSun,                   !- Sun Exposure
    WindExposed,             !- Wind Exposure
    0.5,                     !- View Factor to Ground
    4,                       !- Number of Vertices
    6.00, 16.00, 6.00,                  !- X,Y,Z  1 {m}
    6.00, 16.00, 0.00,                  !- X,Y,Z  2 {m}
    0.00, 16.00, 0.00,                  !- X,Y,Z  3 {m}
    0.00, 16.00, 6.00;                  !- X,Y,Z  4 {m}

FenestrationSurface:Detailed,
    OPENING B1,              !- Name
    Door,                    !- Surface Type
    EXT WALL,                !- Construction Name
    ZONE ONE SURFACE NORTH,  !- Building Surface Name
    ,                        !- Outside Boundary Condition Object
    0.0,                     !- View Factor to Ground
    ,                        !- Shading Control Name
    ,                        !- Frame and Divider Name
    1,                       !- Multiplier
    4,                       !- Number of Vertices
    3.5, 16.00, 2.0,                    !- X,Y,Z  1 {m}
    3.5, 16.00, 0.0,                    !- X,Y,Z  2 {m}
    2.5, 16.00, 0.0,                    !- X,Y,Z  3 {m}
    2.5, 16.00, 2.0;                    !- X,Y,Z  4 {m}

BuildingSurface:Detailed,
    ZONE ONE SURFACE EAST,   !- Name
    Wall,                    !- Surface Type
    INT WALL 2,              !- Construction Name
    ZONE ONE,                !- Zone Name
    Surface,                 !- Outside Boundary Condition
    ZONE TWO SURFACE WEST,   !- Outside Boundary Condition Object
    NoSun,                   !- Sun Exposure
    NoWind,                  !- Wind Exposure
    0.5,                     !- View Factor to Ground
    4,                       !- Number of Vertices
    6.00, 8.00, 6.00,                   !- X,Y,Z  1 {m}
    6.00, 8.00, 0.00,                   !- X,Y,Z  2 {m}
    6.00, 16.00, 0.00,                  !- X,Y,Z  3 {m}
    6.00, 16.00, 6.00;                  !- X,Y,Z  4 {m}

BuildingSurface:Detailed,
    ZONE ONE SURFACE SOUTH,  !- Name
    Wall,                    !- Surface Type
    INT WALL 2,              !- Construction Name
    ZONE ONE,                !- Zone Name
    Surface,                 !- Outside Boundary Condition
    ZONE THREE SURFACE NORTH,!- Outside Boundary Condition Object
    NoSun,                   !- Sun Exposure
    NoWind,                  !- Wind Exposure
    0.5,                     !- View Factor to Ground
    4,                       !- Number of Vertices
    0.00, 8.00, 6.00,                   !- X,Y,Z  1 {m}
    0.00, 8.00, 0.00,                   !- X,Y,Z  2 {m}
    6.00, 8.00, 0.00,                   !- X,Y,Z  3 {m}
    6.00, 8.00, 6.00;                   !- X,Y,Z  4 {m}

FenestrationSurface:Detailed,
    OPENING D1-ZONE ONE,     !- Name
    Door,                    !- Surface Type
    INT WALL 2,              !- Construction Name
    ZONE ONE SURFACE SOUTH,  !- Building Surface Name
    OPENING D1-ZONE THREE,   !- Outside Boundary Condition Object
    0.0,                     !- View Factor to Ground
    ,                        !- Shading Control Name
    ,                        !- Frame and Divider Name
    1,                       !- Multiplier
    4,                       !- Number of Vertices
    2.5, 8.0, 2.0,                      !- X,Y,Z  1 {m}
    2.5, 8.0, 0.0,                      !- X,Y,Z  2 {m}
    3.5, 8.0, 0.0,                      !- X,Y,Z  3 {m}
    3.5, 8.0, 2.0;                      !- X,Y,Z  4 {m}

BuildingSurface:Detailed,
    ZONE ONE SURFACE WEST,   !- Name
    Wall,                    !- Surface Type
    EXT WALL,                !- Construction Name
    ZONE ONE,                !- Zone Name
    Outdoors,                !- Outside Boundary Condition
    ,                        !- Outside Boundary Condition Object
    NoSun,                   !- Sun Exposure
    WindExposed,             !- Wind Exposure
    0.5,                     !- View Factor to Ground
    4,                       !- Number of Vertices
    0.00, 16.00, 6.00,                  !- X,Y,Z  1 {m}
    0.00, 16.00, 0.00,                  !- X,Y,Z  2 {m}
    0.00, 8.00, 0.00,                   !- X,Y,Z  3 {m}
    0.00, 8.00, 6.00;                   !- X,Y,Z  4 {m}

FenestrationSurface:Detailed,
    OPENING B2,              !- Name
    Door,                    !- Surface Type
    EXT WALL,                !- Construction Name
    ZONE ONE SURFACE WEST,   !- Building Surface Name
    ,                        !- Outside Boundary Condition Object
    0.0,                     !- View Factor to Ground
    ,                        !- Shading Control Name
    ,                        !- Frame and Divider Name
    1,                       !- Multiplier
    4,                       !- Number of Vertices
    0.0, 12.5, 2.0,                     !- X,Y,Z  1 {m}
    0.0, 12.5, 0.0,                     !- X,Y,Z  2 {m}
    0.0, 11.5, 0.0,                     !- X,Y,Z  3 {m}
    0.0, 11.5, 2.0;                     !- X,Y,Z  4 {m}

BuildingSurface:Detailed,
    ZONE ONE SURFACE FLOOR,  !- Name
    Floor,                   !- Surface Type
    FLOOR 1,                 !- Construction Name
    ZONE ONE,                !- Zone Name
    Outdoors,                !- Outside Boundary Condition
    ,                        !- Outside Boundary Condition Object
    NoSun,                   !- Sun Exposure
    NoWind,                  !- Wind Exposure
    0.00,                    !- View Factor to Ground
    4,                       !- Number of Vertices
    0.00, 8.00, 0.00,                   !- X,Y,Z  1 {m}
    0.00, 16.00, 0.00,                  !- X,Y,Z  2 {m}
    6.00, 16.00, 0.00,                  !- X,Y,Z  3 {m}
    6.00, 8.00, 0.00;                   !- X,Y,Z  4 {m}

BuildingSurface:Detailed,
    ZONE ONE SURFACE ROOF,   !- Name
    Roof,                    !- Surface Type
    ROOF 1,                  !- Construction Name
    ZONE ONE,                !- Zone Name
    Outdoors,                !- Outside Boundary Condition
    ,                        !- Outside Boundary Condition Object
    NoSun,                   !- Sun Exposure
    WindExposed,             !- Wind Exposure
    0.00,                    !- View Factor to Ground
    4,                       !- Number of Vertices
    0.00, 16.00, 6.00,                  !- X,Y,Z  1 {m}
    0.00, 8.00, 6.00,                   !- X,Y,Z  2 {m}
    6.00, 8.00, 6.00,                   !- X,Y,Z  3 {m}
    6.00, 16.00, 6.00;                  !- X,Y,Z  4 {m}

Zone,
    ZONE TWO,                !- Name
    0,                       !- Direction of Relative North {deg}
    0, 0, 0,                            !- X,Y,Z  {m}
    1,                       !- Type
    1,                       !- Multiplier
    6.0000,                  !- Ceiling Height {m}
    288.0;                   !- Volume {m3}

BuildingSurface:Detailed,
    ZONE TWO SURFACE NORTH,  !- Name
    Wall,                    !- Surface Type
    EXT WALL,                !- Construction Name
    ZONE TWO,                !- Zone Name
    Outdoors,                !- Outside Boundary Condition
    ,                        !- Outside Boundary Condition Object
    NoSun,                   !- Sun Exposure
    WindExposed,             !- Wind Exposure
    0.5,                     !- View Factor to Ground
    4,                       !- Number of Vertices
    12.00, 16.00, 6.00,                 !- X,Y,Z  1 {m}
    12.00, 16.00, 0.00,                 !- X,Y,Z  2 {m}
    6.00, 16.00, 0.00,                  !- X,Y,Z  3 {m}
    6.00, 16.00, 6.00;                  !- X,Y,Z  4 {m}

BuildingSurface:Detailed,
    ZONE TWO SURFACE EAST,   !- Name
    Wall,                    !- Surface Type
    EXT WALL,                !- Construction Name
    ZONE TWO,                !- Zone Name
    Outdoors,                !- Outside Boundary Condition
    ,                        !- Outside Boundary Condition Object
    NoSun,                   !- Sun Exposure
    WindExposed,             !- Wind Exposure
    0.5,                     !- View Factor to Ground
    4,                       !- Number of Vertices
    12.00, 8.00, 6.00,                  !- X,Y,Z  1 {m}
    12.00, 8.00, 0.00,                  !- X,Y,Z  2 {m}
    12.00, 16.00, 0.00,                 !- X,Y,Z  3 {m}
    12.00, 16.00, 6.00;                 !- X,Y,Z  4 {m}

FenestrationSurface:Detailed,
    OPENING B6,              !- Name
    Door,                    !- Surface Type
    EXT WALL,                !- Construction Name
    ZONE TWO SURFACE EAST,   !- Building Surface Name
    ,                        !- Outside Boundary Condition Object
    0.0,                     !- View Factor to Ground
    ,                        !- Shading Control Name
    ,                        !- Frame and Divider Name
    1,                       !- Multiplier
    4,                       !- Number of Vertices
    12.0, 11.5, 2.0,                    !- X,Y,Z  1 {m}
    12.0, 11.5, 0.0,                    !- X,Y,Z  2 {m}
    12.0, 12.5, 0.0,                    !- X,Y,Z  3 {m}
    12.0, 12.5, 2.0;                    !- X,Y,Z  4 {m}

BuildingSurface:Detailed,
    ZONE TWO SURFACE SOUTH,  !- Name
    Wall,                    !- Surface Type
    INT WALL 2,              !- Construction Name
    ZONE TWO,                !- Zone Name
    Surface,                 !- Outside Boundary Condition
    ZONE FOUR SURFACE NORTH, !- Outside Boundary Condition Object
    NoSun,                   !- Sun Exposure
    NoWind,                  !- Wind Exposure
    0.5,                     !- View Factor to Ground
    4,                       !- Number of Vertices
    6.00, 8.00, 6.00,                   !- X,Y,Z  1 {m}
    6.00, 8.00, 0.00,                   !- X,Y,Z  2 {m}
    12.00, 8.00, 0.00,                  !- X,Y,Z  3 {m}
    12.00, 8.00, 6.00;                  !- X,Y,Z  4 {m}

BuildingSurface:Detailed,
    ZONE TWO SURFACE WEST,   !- Name
    Wall,                    !- Surface Type
    INT WALL 2,              !- Construction Name
    ZONE TWO,                !- Zone Name
    Surface,                 !- Outside Boundary Condition
    ZONE ONE SURFACE EAST,   !- Outside Boundary Condition Object
    NoSun,                   !- Sun Exposure
    NoWind,                  !- Wind Exposure
    0.5,                     !- View Factor to Ground
    4,                       !- Number of Vertices
    6.00, 16.00, 6.00,                  !- X,Y,Z  1 {m}
    6.00, 16.00, 0.00,                  !- X,Y,Z  2 {m}
    6.00, 8.00, 0.00,                   !- X,Y,Z  3 {m}
    6.00, 8.00, 6.00;                   !- X,Y,Z  4 {m}

BuildingSurface:Detailed,
    ZONE TWO SURFACE FLOOR,  !- Name
    Floor,                   !- Surface Type
    FLOOR 1,                 !- Construction Name
    ZONE TWO,                !- Zone Name
    Outdoors,                !- Outside Boundary Condition
    ,                        !- Outside Boundary Condition Object
    NoSun,                   !- Sun Exposure
    NoWind,                  !- Wind Exposure
    0.00,                    !- View Factor to Ground
    4,                       !- Number of Vertices
    6.00, 8.00, 0.00,                   !- X,Y,Z  1 {m}
    6.00, 16.00, 0.00,                  !- X,Y,Z  2 {m}
    12.00, 16.00, 0.00,                 !- X,Y,Z  3 {m}
    12.00, 8.00, 0.00;                  !- X,Y,Z  4 {m}

BuildingSurface:Detailed,
    ZONE TWO SURFACE ROOF,   !- Name
    Roof,                    !- Surface Type
    ROOF 1,                  !- Construction Name
    ZONE TWO,                !- Zone Name
    Outdoors,                !- Outside Boundary Condition
    ,                        !- Outside Boundary Condition Object
    NoSun,                   !- Sun Exposure
    WindExposed,             !- Wind Exposure
    0.00,                    !- View Factor to Ground
    4,                       !- Number of Vertices
    6.00, 16.00, 6.00,                  !- X,Y,Z  1 {m}
    6.00, 8.00, 6.00,                   !- X,Y,Z  2 {m}
    12.00, 8.00, 6.00,                  !- X,Y,Z  3 {m}
    12.00, 16.00, 6.00;                 !- X,Y,Z  4 {m}

FenestrationSurface:Detailed,
    OPENING R1,              !- Name
    Door,                    !- Surface Type
    EXT WALL,                !- Construction Name
    ZONE TWO SURFACE ROOF,   !- Building Surface Name
    ,                        !- Outside Boundary Condition Object
    0.0,                     !- View Factor to Ground
    ,                        !- Shading Control Name
    ,                        !- Frame and Divider Name
    1,                       !- Multiplier
    4,                       !- Number of Vertices
    8.5, 12.5, 6.0,                     !- X,Y,Z  1 {m}
    8.5, 11.5, 6.0,                     !- X,Y,Z  2 {m}
    9.50, 11.5, 6.0,                    !- X,Y,Z  3 {m}
    9.50, 12.5, 6.0;                    !- X,Y,Z  4 {m}

Zone,
    ZONE THREE,              !- Name
    0,                       !- Direction of Relative North {deg}
    0, 0, 0,                            !- X,Y,Z  {m}
    1,                       !- Type
    1,                       !- Multiplier
    6.0000,                  !- Ceiling Height {m}
    288.0;                   !- Volume {m3}

BuildingSurface:Detailed,
    ZONE THREE SURFACE NORTH,!- Name
    Wall,                    !- Surface Type
    INT WALL 2,              !- Construction Name
    ZONE THREE,              !- Zone Name
    Surface,                 !- Outside Boundary Condition
    ZONE ONE SURFACE SOUTH,  !- Outside Boundary Condition Object
    NoSun,                   !- Sun Exposure
    NoWind,                  !- Wind Exposure
    0.5,                     !- View Factor to Ground
    4,                       !- Number of Vertices
    6.00, 8.00, 6.00,                   !- X,Y,Z  1 {m}
    6.00, 8.00, 0.00,                   !- X,Y,Z  2 {m}
    0.00, 8.00, 0.00,                   !- X,Y,Z  3 {m}
    0.00, 8.00, 6.00;                   !- X,Y,Z  4 {m}

FenestrationSurface:Detailed,
    OPENING D1-ZONE THREE,   !- Name
    Door,                    !- Surface Type
    INT WALL 2,              !- Construction Name
    ZONE THREE SURFACE NORTH,!- Building Surface Name
    OPENING D1-ZONE ONE,     !- Outside Boundary Condition Object
    0.0,                     !- View Factor to Ground
    ,                        !- Shading Control Name
    ,                        !- Frame and Divider Name
    1,                       !- Multiplier
    4,                       !- Number of Vertices
    3.5, 8.0, 2.0,                      !- X,Y,Z  1 {m}
    3.5, 8.0, 0.0,                      !- X,Y,Z  2 {m}
    2.5, 8.0, 0.0,                      !- X,Y,Z  3 {m}
    2.5, 8.0, 2.0;                      !- X,Y,Z  4 {m}

BuildingSurface:Detailed,
    ZONE THREE SURFACE EAST, !- Name
    Wall,                    !- Surface Type
    INT WALL 2,              !- Construction Name
    ZONE THREE,              !- Zone Name
    Surface,                 !- Outside Boundary Condition
    ZONE FOUR SURFACE WEST,  !- Outside Boundary Condition Object
    NoSun,                   !- Sun Exposure
    NoWind,                  !- Wind Exposure
    0.5,                     !- View Factor to Ground
    4,                       !- Number of Vertices
    6.00, 0.00, 6.00,                   !- X,Y,Z  1 {m}
    6.00, 0.00, 0.00,                   !- X,Y,Z  2 {m}
    6.00, 8.00, 0.00,                   !- X,Y,Z  3 {m}
    6.00, 8.00, 6.00;                   !- X,Y,Z  4 {m}

FenestrationSurface:Detailed,
    OPENING D2-ZONE THREE,   !- Name
    Door,                    !- Surface Type
    INT WALL 2,              !- Construction Name
    ZONE THREE SURFACE EAST, !- Building Surface Name
    OPENING D2-ZONE FOUR,    !- Outside Boundary Condition Object
    0.0,                     !- View Factor to Ground
    ,                        !- Shading Control Name
    ,                        !- Frame and Divider Name
    1,                       !- Multiplier
    4,                       !- Number of Vertices
    6.0, 3.5, 1.0,                      !- X,Y,Z  1 {m}
    6.0, 3.5, 0.0,                      !- X,Y,Z  2 {m}
    6.0, 4.5, 0.0,                      !- X,Y,Z  3 {m}
    6.0, 4.5, 1.0;                      !- X,Y,Z  4 {m}

BuildingSurface:Detailed,
    ZONE THREE SURFACE SOUTH,!- Name
    Wall,                    !- Surface Type
    EXT WALL,                !- Construction Name
    ZONE THREE,              !- Zone Name
    Outdoors,                !- Outside Boundary Condition
    ,                        !- Outside Boundary Condition Object
    NoSun,                   !- Sun Exposure
    WindExposed,             !- Wind Exposure
    0.5,                     !- View Factor to Ground
    4,                       !- Number of Vertices
    0.00, 0.00, 6.00,                   !- X,Y,Z  1 {m}
    0.00, 0.00, 0.00,                   !- X,Y,Z  2 {m}
    6.00, 0.00, 0.00,                   !- X,Y,Z  3 {m}
    6.00, 0.00, 6.00;                   !- X,Y,Z  4 {m}

FenestrationSurface:Detailed,
    OPENING B4,              !- Name
    Door,                    !- Surface Type
    EXT WALL,                !- Construction Name
    ZONE THREE SURFACE SOUTH,!- Building Surface Name
    ,                        !- Outside Boundary Condition Object
    0.0,                     !- View Factor to Ground
    ,                        !- Shading Control Name
    ,                        !- Frame and Divider Name
    1,                       !- Multiplier
    4,                       !- Number of Vertices
    2.5, 0.00, 2.0,                     !- X,Y,Z  1 {m}
    2.5, 0.00, 0.0,                     !- X,Y,Z  2 {m}
    3.5, 0.00, 0.0,                     !- X,Y,Z  3 {m}
    3.5, 0.00, 2.0;                     !- X,Y,Z  4 {m}

BuildingSurface:Detailed,
    ZONE THREE SURFACE WEST, !- Name
    Wall,                    !- Surface Type
    EXT WALL,                !- Construction Name
    ZONE THREE,              !- Zone Name
    Outdoors,                !- Outside Boundary Condition
    ,                        !- Outside Boundary Condition Object
    NoSun,                   !- Sun Exposure
    WindExposed,             !- Wind Exposure
    0.5,                     !- View Factor to Ground
    4,                       !- Number of Vertices
    0.00, 8.00, 6.00,                   !- X,Y,Z  1 {m}
    0.00, 8.00, 0.00,                   !- X,Y,Z  2 {m}
    0.00, 0.00, 0.00,                   !- X,Y,Z  3 {m}
    0.00, 0.00, 6.00;                   !- X,Y,Z  4 {m}

FenestrationSurface:Detailed,
    OPENING B3,              !- Name
    Door,                    !- Surface Type
    EXT WALL,                !- Construction Name
    ZONE THREE SURFACE WEST, !- Building Surface Name
    ,                        !- Outside Boundary Condition Object
    0.0,                     !- View Factor to Ground
    ,                        !- Shading Control Name
    ,                        !- Frame and Divider Name
    1,                       !- Multiplier
    4,                       !- Number of Vertices
    0.0, 4.5, 2.0,                      !- X,Y,Z  1 {m}
    0.0, 4.5, 0.0,                      !- X,Y,Z  2 {m}
    0.0, 3.5, 0.0,                      !- X,Y,Z  3 {m}
    0.0, 3.5, 2.0;                      !- X,Y,Z  4 {m}

BuildingSurface:Detailed,
    ZONE THREE SURFACE FLOOR,!- Name
    Floor,                   !- Surface Type
    FLOOR 1,                 !- Construction Name
    ZONE THREE,              !- Zone Name
    Outdoors,                !- Outside Boundary Condition
    ,                        !- Outside Boundary Condition Object
    NoSun,                   !- Sun Exposure
    NoWind,                  !- Wind Exposure
    0.00,                    !- View Factor to Ground