! European Standard CEN 13791 Test B-2c.idf
! Basic file description: Whole Building test.
! Author:   R. H. Henninger,  GARD Analytics, Inc.
! Date:     January 9, 2007
! Run:
! Building: Geometry B with west oriented double pane window with external shade.
! Internal: Variable 15 W/m2, 50% radiant, 50% convective.
! Ventilation:  Option c - constant 10 ach
! System:   None.
! Plant:    None.
! Modified:

  VERSION,8.1;

  Site:Location,
    UNKNOWN,                 !- Name
    52.0,                    !- Latitude {deg}
    0.0,                     !- Longitude {deg}
    0,                       !- Time Zone {hr}
    0;                       !- Elevation {m}

  SimulationControl,
    No,                      !- Do Zone Sizing Calculation
    No,                      !- Do System Sizing Calculation
    No,                      !- Do Plant Sizing Calculation
    Yes,                     !- Run Simulation for Sizing Periods
    No;                      !- Run Simulation for Weather File Run Periods

  SizingPeriod:DesignDay,
    LONDON/GATWICK Modified Ann Clg .4% Condns DB=>MWB,  !- Name
    6,                       !- Month
    15,                      !- Day of Month
    SummerDesignDay,         !- Day Type
    28,                      !- Maximum Dry-Bulb Temperature {C}
    16.0,                    !- Daily Dry-Bulb Temperature Range {deltaC}
    DifferenceSchedule,      !- Dry-Bulb Temperature Range Modifier Type
    Outdoor Temp Deltas,     !- Dry-Bulb Temperature Range Modifier Day Schedule Name
    Wetbulb,                 !- Humidity Condition Type
    18.6,                    !- Wetbulb or DewPoint at Maximum Dry-Bulb {C}
    ,                        !- Humidity Condition Day Schedule Name
    ,                        !- Humidity Ratio at Maximum Dry-Bulb {kgWater/kgDryAir}
    ,                        !- Enthalpy at Maximum Dry-Bulb {J/kg}
    ,                        !- Daily Wet-Bulb Temperature Range {deltaC}
    100582.,                 !- Barometric Pressure {Pa}
    1.0,                     !- Wind Speed {m/s}
    0.,                      !- Wind Direction {deg}
    No,                      !- Rain Indicator
    No,                      !- Snow Indicator
    No,                      !- Daylight Saving Time Indicator
    Schedule,                !- Solar Model Indicator
    Solar Data,              !- Beam Solar Day Schedule Name
    Diffuse Data;            !- Diffuse Solar Day Schedule Name

  Schedule:Day:List,
    Outdoor Temp Deltas,     !- Name
    Any Number,              !- Schedule Type Limits Name
    No,                      !- Interpolate to Timestep
    15,                      !- Minutes per Item
    13.300,                  !- Value 1
    13.500,                  !- <none>
    13.700,                  !- <none>
    13.900,                  !- <none>
    14.100,                  !- <none>
    14.300,                  !- <none>
    14.500,                  !- <none>
    14.700,                  !- <none>
    14.875,                  !- <none>
    15.050,                  !- <none>
    15.225,                  !- <none>
    15.400,                  !- <none>
    15.500,                  !- <none>
    15.600,                  !- <none>
    15.700,                  !- <none>
    15.800,                  !- <none>
    15.850,                  !- <none>
    15.900,                  !- <none>
    15.950,                  !- <none>
    16.000,                  !- <none>
    15.925,                  !- <none>
    15.850,                  !- <none>
    15.775,                  !- <none>
    15.700,                  !- <none>
    15.500,                  !- <none>
    15.300,                  !- <none>
    15.100,                  !- <none>
    14.900,                  !- <none>
    14.525,                  !- <none>
    14.150,                  !- <none>
    13.775,                  !- <none>
    13.400,                  !- <none>
    12.900,                  !- <none>
    12.400,                  !- <none>
    11.900,                  !- <none>
    11.400,                  !- <none>
    10.800,                  !- <none>
    10.200,                  !- <none>
    9.600,                   !- <none>
    9.000,                   !- <none>
    8.300,                   !- <none>
    7.600,                   !- <none>
    6.900,                   !- <none>
    6.200,                   !- <none>
    5.575,                   !- <none>
    4.950,                   !- <none>
    4.325,                   !- <none>
    3.700,                   !- <none>
    3.225,                   !- <none>
    2.750,                   !- <none>
    2.275,                   !- <none>
    1.800,                   !- <none>
    1.475,                   !- <none>
    1.150,                   !- <none>
    0.825,                   !- <none>
    0.500,                   !- <none>
    0.375,                   !- <none>
    0.250,                   !- <none>
    0.125,                   !- <none>
    0.000,                   !- <none>
    0.125,                   !- <none>
    0.250,                   !- <none>
    0.375,                   !- <none>
    0.500,                   !- <none>
    0.775,                   !- <none>
    1.050,                   !- <none>
    1.325,                   !- <none>
    1.600,                   !- <none>
    2.050,                   !- <none>
    2.500,                   !- <none>
    2.950,                   !- <none>
    3.400,                   !- <none>
    3.900,                   !- <none>
    4.400,                   !- <none>
    4.900,                   !- <none>
    5.400,                   !- <none>
    5.925,                   !- <none>
    6.450,                   !- <none>
    6.975,                   !- <none>
    7.500,                   !- <none>
    7.950,                   !- <none>
    8.400,                   !- <none>
    8.850,                   !- <none>
    9.300,                   !- <none>
    9.700,                   !- <none>
    10.100,                  !- <none>
    10.500,                  !- <none>
    10.900,                  !- <none>
    11.225,                  !- <none>
    11.550,                  !- <none>
    11.875,                  !- <none>
    12.200,                  !- <none>
    12.425,                  !- <none>
    12.650,                  !- <none>
    12.875,                  !- <none>
    13.100;                  !- <none>

  Schedule:Day:List,
    Solar Data,              !- Name
    Any Number,              !- Schedule Type Limits Name
    No,                      !- Interpolate to Timestep
    15,                      !- Minutes per Item
    0,                       !- Value 1
    0,                       !- <none>
    0,                       !- <none>
    0,                       !- <none>
    0,                       !- <none>
    0,                       !- <none>
    0,                       !- <none>
    0,                       !- <none>
    0,                       !- <none>
    0,                       !- <none>
    0,                       !- <none>
    0,                       !- <none>
    0,                       !- <none>
    0,                       !- <none>
    0,                       !- <none>
    0,                       !- <none>
    53.028,                  !- <none>
    106.055,                 !- <none>
    159.083,                 !- <none>
    212.110,                 !- <none>
    281.926,                 !- <none>
    351.742,                 !- <none>
    421.558,                 !- <none>
    491.374,                 !- <none>
    529.647,                 !- <none>
    567.920,                 !- <none>
    606.193,                 !- <none>
    644.466,                 !- <none>
    666.385,                 !- <none>
    688.304,                 !- <none>
    710.223,                 !- <none>
    732.141,                 !- <none>
    745.228,                 !- <none>
    758.316,                 !- <none>
    771.403,                 !- <none>
    784.490,                 !- <none>
    792.440,                 !- <none>
    800.390,                 !- <none>
    808.339,                 !- <none>
    816.289,                 !- <none>
    820.329,                 !- <none>
    824.368,                 !- <none>
    828.408,                 !- <none>
    832.447,                 !- <none>
    833.854,                 !- <none>
    835.260,                 !- <none>
    836.666,                 !- <none>
    838.072,                 !- <none>
    836.651,                 !- <none>
    835.229,                 !- <none>
    833.808,                 !- <none>
    832.386,                 !- <none>
    828.331,                 !- <none>
    824.276,                 !- <none>
    820.220,                 !- <none>
    816.165,                 !- <none>
    808.199,                 !- <none>
    800.233,                 !- <none>
    792.266,                 !- <none>
    784.300,                 !- <none>
    771.196,                 !- <none>
    758.091,                 !- <none>
    744.986,                 !- <none>
    731.881,                 !- <none>
    709.945,                 !- <none>
    688.008,                 !- <none>
    666.072,                 !- <none>
    644.135,                 !- <none>
    605.849,                 !- <none>
    567.563,                 !- <none>
    529.276,                 !- <none>
    490.990,                 !- <none>
    421.195,                 !- <none>
    351.399,                 !- <none>
    281.604,                 !- <none>
    211.808,                 !- <none>
    158.856,                 !- <none>
    105.904,                 !- <none>
    52.952,                  !- <none>
    0,                       !- <none>
    0,                       !- <none>
    0,                       !- <none>
    0,                       !- <none>
    0,                       !- <none>
    0,                       !- <none>
    0,                       !- <none>
    0,                       !- <none>
    0,                       !- <none>
    0,                       !- <none>
    0,                       !- <none>
    0,                       !- <none>
    0,                       !- <none>
    0,                       !- <none>
    0,                       !- <none>
    0,                       !- <none>
    0;                       !- <none>

  Schedule:Day:List,
    Diffuse Data,            !- Name
    Any Number,              !- Schedule Type Limits Name
    No,                      !- Interpolate to Timestep
    15,                      !- Minutes per Item
    0,                       !- Value 1
    0,                       !- <none>
    0,                       !- <none>
    0,                       !- <none>
    0,                       !- <none>
    0,                       !- <none>
    0,                       !- <none>
    0,                       !- <none>
    0,                       !- <none>
    0,                       !- <none>
    0,                       !- <none>
    0,                       !- <none>
    0,                       !- <none>
    0,                       !- <none>
    0,                       !- <none>
    0,                       !- <none>
    8.50,                    !- <none>
    17.00,                   !- <none>
    25.50,                   !- <none>
    34.00,                   !- <none>
    43.75,                   !- <none>
    53.50,                   !- <none>
    63.25,                   !- <none>
    73.00,                   !- <none>
    78.00,                   !- <none>
    83.00,                   !- <none>
    88.00,                   !- <none>
    93.00,                   !- <none>
    95.75,                   !- <none>
    98.50,                   !- <none>
    101.25,                  !- <none>
    104.00,                  !- <none>
    105.50,                  !- <none>
    107.00,                  !- <none>
    108.50,                  !- <none>
    110.00,                  !- <none>
    111.00,                  !- <none>
    112.00,                  !- <none>
    113.00,                  !- <none>
    114.00,                  !- <none>
    114.50,                  !- <none>
    115.00,                  !- <none>
    115.50,                  !- <none>
    116.00,                  !- <none>
    116.25,                  !- <none>
    116.50,                  !- <none>
    116.75,                  !- <none>
    117.00,                  !- <none>
    116.75,                  !- <none>
    116.50,                  !- <none>
    116.25,                  !- <none>
    116.00,                  !- <none>
    115.50,                  !- <none>
    115.00,                  !- <none>
    114.50,                  !- <none>
    114.00,                  !- <none>
    113.00,                  !- <none>
    112.00,                  !- <none>
    111.00,                  !- <none>
    110.00,                  !- <none>
    108.50,                  !- <none>
    107.00,                  !- <none>
    105.50,                  !- <none>
    104.00,                  !- <none>
    101.25,                  !- <none>
    98.50,                   !- <none>
    95.75,                   !- <none>
    93.00,                   !- <none>
    88.00,                   !- <none>
    83.00,                   !- <none>
    78.00,                   !- <none>
    73.00,                   !- <none>
    63.25,                   !- <none>
    53.50,                   !- <none>
    43.75,                   !- <none>
    34.00,                   !- <none>
    25.50,                   !- <none>
    17.00,                   !- <none>
    8.50,                    !- <none>
    0,                       !- <none>
    0,                       !- <none>
    0,                       !- <none>
    0,                       !- <none>
    0,                       !- <none>
    0,                       !- <none>
    0,                       !- <none>
    0,                       !- <none>
    0,                       !- <none>
    0,                       !- <none>
    0,                       !- <none>
    0,                       !- <none>
    0,                       !- <none>
    0,                       !- <none>
    0,                       !- <none>
    0,                       !- <none>
    0;                       !- <none>

  Material,
    Type 1-OuterLayer,       !- Name
    Smooth,                  !- Roughness
    0.115,                   !- Thickness {m}
    0.99,                    !- Conductivity {W/m-K}
    1800.,                   !- Density {kg/m3}
    850.0,                   !- Specific Heat {J/kg-K}
    0.000001,                !- Thermal Absorptance
    0.6,                     !- Solar Absorptance
    0.000001;                !- Visible Absorptance

  Material,
    Type 1-InsulatingLayer,  !- Name
    Smooth,                  !- Roughness
    0.06,                    !- Thickness {m}
    0.04,                    !- Conductivity {W/m-K}
    30.,                     !- Density {kg/m3}
    850.0,                   !- Specific Heat {J/kg-K}
    0.000001,                !- Thermal Absorptance
    0.6,                     !- Solar Absorptance
    0.000001;                !- Visible Absorptance

  Material,
    Type 1-Masonry,          !- Name
    Smooth,                  !- Roughness
    0.175,                   !- Thickness {m}
    0.79,                    !- Conductivity {W/m-K}
    1600.,                   !- Density {kg/m3}
    850.0,                   !- Specific Heat {J/kg-K}
    0.000001,                !- Thermal Absorptance
    0.6,                     !- Solar Absorptance
    0.000001;                !- Visible Absorptance

  Material,
    Type 1-InternalPlaster,  !- Name
    Smooth,                  !- Roughness
    0.015,                   !- Thickness {m}
    0.70,                    !- Conductivity {W/m-K}
    1400.,                   !- Density {kg/m3}
    850.0,                   !- Specific Heat {J/kg-K}
    0.000001,                !- Thermal Absorptance
    1.0,                     !- Solar Absorptance
    0.000001;                !- Visible Absorptance

  Material,
    Type 2-GypsumPlaster,    !- Name
    Smooth,                  !- Roughness
    0.012,                   !- Thickness {m}
    0.21,                    !- Conductivity {W/m-K}
    900.,                    !- Density {kg/m3}
    850.0,                   !- Specific Heat {J/kg-K}
    0.000001,                !- Thermal Absorptance
    1.0,                     !- Solar Absorptance
    0.000001;                !- Visible Absorptance

  Material,
    Type 2-InsulatingLayer,  !- Name
    Smooth,                  !- Roughness
    0.10,                    !- Thickness {m}
    0.04,                    !- Conductivity {W/m-K}
    30.,                     !- Density {kg/m3}
    850.0,                   !- Specific Heat {J/kg-K}
    0.000001,                !- Thermal Absorptance
    0.6,                     !- Solar Absorptance
    0.000001;                !- Visible Absorptance

  Material,
    Type 3-PlasticCovering-Interior,  !- Name
    Smooth,                  !- Roughness
    0.004,                   !- Thickness {m}
    0.23,                    !- Conductivity {W/m-K}
    1500.,                   !- Density {kg/m3}
    1500.0,                  !- Specific Heat {J/kg-K}
    0.000001,                !- Thermal Absorptance
    1.0,                     !- Solar Absorptance
    0.000001;                !- Visible Absorptance

  Material,
    Type 3-PlasticCovering-Exterior,  !- Name
    Smooth,                  !- Roughness
    0.004,                   !- Thickness {m}
    0.23,                    !- Conductivity {W/m-K}
    1500.,                   !- Density {kg/m3}
    1500.0,                  !- Specific Heat {J/kg-K}
    0.000001,                !- Thermal Absorptance
    0.6,                     !- Solar Absorptance
    0.000001;                !- Visible Absorptance

  Material,
    Type 3-CementFloor,      !- Name
    Smooth,                  !- Roughness
    0.06,                    !- Thickness {m}
    1.40,                    !- Conductivity {W/m-K}
    2000.,                   !- Density {kg/m3}
    850.0,                   !- Specific Heat {J/kg-K}
    0.000001,                !- Thermal Absorptance
    0.6,                     !- Solar Absorptance
    0.000001;                !- Visible Absorptance

  Material,
    Type 3-InsulatingLayer,  !- Name
    Smooth,                  !- Roughness
    0.04,                    !- Thickness {m}
    0.04,                    !- Conductivity {W/m-K}
    50.,                     !- Density {kg/m3}
    850.0,                   !- Specific Heat {J/kg-K}
    0.000001,                !- Thermal Absorptance
    0.6,                     !- Solar Absorptance
    0.000001;                !- Visible Absorptance

  Material,
    Type 3-Concrete-Interior,!- Name
    Smooth,                  !- Roughness
    0.18,                    !- Thickness {m}
    2.10,                    !- Conductivity {W/m-K}
    2400.,                   !- Density {kg/m3}
    850.0,                   !- Specific Heat {J/kg-K}
    0.000001,                !- Thermal Absorptance
    1.0,                     !- Solar Absorptance
    0.000001;                !- Visible Absorptance

  Material,
    Type 3-Concrete-Exterior,!- Name
    Smooth,                  !- Roughness
    0.18,                    !- Thickness {m}
    2.10,                    !- Conductivity {W/m-K}
    2400.,                   !- Density {kg/m3}
    850.0,                   !- Specific Heat {J/kg-K}
    0.000001,                !- Thermal Absorptance
    0.6,                     !- Solar Absorptance
    0.000001;                !- Visible Absorptance

  Material,
    Type 4-PlasticCovering-Interior,  !- Name
    Smooth,                  !- Roughness
    0.004,                   !- Thickness {m}
    0.23,                    !- Conductivity {W/m-K}
    1500.,                   !- Density {kg/m3}
    1500.0,                  !- Specific Heat {J/kg-K}
    0.000001,                !- Thermal Absorptance
    1.0,                     !- Solar Absorptance
    0.000001;                !- Visible Absorptance

  Material,
    Type 4-PlasticCovering-Exterior,  !- Name
    Smooth,                  !- Roughness
    0.004,                   !- Thickness {m}
    0.23,                    !- Conductivity {W/m-K}
    1500.,                   !- Density {kg/m3}
    1500.0,                  !- Specific Heat {J/kg-K}
    0.000001,                !- Thermal Absorptance
    0.6,                     !- Solar Absorptance
    0.000001;                !- Visible Absorptance

  Material,
    Type 4-CementFloor,      !- Name
    Smooth,                  !- Roughness
    0.06,                    !- Thickness {m}
    1.4,                     !- Conductivity {W/m-K}
    2000.,                   !- Density {kg/m3}
    850.0,                   !- Specific Heat {J/kg-K}
    0.000001,                !- Thermal Absorptance
    0.6,                     !- Solar Absorptance
    0.000001;                !- Visible Absorptance

  Material,
    Type 4-InsulatingLayer,  !- Name
    Smooth,                  !- Roughness
    0.04,                    !- Thickness {m}
    0.04,                    !- Conductivity {W/m-K}
    50.,                     !- Density {kg/m3}
    850.0,                   !- Specific Heat {J/kg-K}
    0.000001,                !- Thermal Absorptance
    0.6,                     !- Solar Absorptance
    0.000001;                !- Visible Absorptance

  Material,
    Type 4-Concrete,         !- Name
    Smooth,                  !- Roughness
    0.18,                    !- Thickness {m}
    2.1,                     !- Conductivity {W/m-K}
    2400.,                   !- Density {kg/m3}
    850.0,                   !- Specific Heat {J/kg-K}
    0.000001,                !- Thermal Absorptance
    0.6,                     !- Solar Absorptance
    0.000001;                !- Visible Absorptance

  Material,
    Type 4-InsulatingLayer2, !- Name
    Smooth,                  !- Roughness
    0.10,                    !- Thickness {m}
    0.04,                    !- Conductivity {W/m-K}
    50.,                     !- Density {kg/m3}
    850.0,                   !- Specific Heat {J/kg-K}
    0.000001,                !- Thermal Absorptance
    0.6,                     !- Solar Absorptance
    0.000001;                !- Visible Absorptance

  Material,
    Type 4-AcousticBoard-Interior,  !- Name
    Smooth,                  !- Roughness
    0.02,                    !- Thickness {m}
    0.06,                    !- Conductivity {W/m-K}
    400.,                    !- Density {kg/m3}
    840.0,                   !- Specific Heat {J/kg-K}
    0.000001,                !- Thermal Absorptance
    1.0,                     !- Solar Absorptance
    0.000001;                !- Visible Absorptance

  Material,
    Type 4-AcousticBoard-Exterior,  !- Name
    Smooth,                  !- Roughness
    0.02,                    !- Thickness {m}
    0.06,                    !- Conductivity {W/m-K}
    400.,                    !- Density {kg/m3}
    840.0,                   !- Specific Heat {J/kg-K}
    0.000001,                !- Thermal Absorptance
    0.6,                     !- Solar Absorptance
    0.000001;                !- Visible Absorptance

  Material,
    Type 5-ExternalLayer,    !- Name
    Smooth,                  !- Roughness
    0.004,                   !- Thickness {m}
    0.23,                    !- Conductivity {W/m-K}
    1500.,                   !- Density {kg/m3}
    1300.0,                  !- Specific Heat {J/kg-K}
    0.000001,                !- Thermal Absorptance
    0.9,                     !- Solar Absorptance
    0.000001;                !- Visible Absorptance

  Material,
    Type 5-InsulatingLayer,  !- Name
    Smooth,                  !- Roughness
    0.08,                    !- Thickness {m}
    0.04,                    !- Conductivity {W/m-K}
    50.,                     !- Density {kg/m3}
    850.0,                   !- Specific Heat {J/kg-K}
    0.000001,                !- Thermal Absorptance
    0.6,                     !- Solar Absorptance
    0.000001;                !- Visible Absorptance

  Material,
    Type 5-Concrete,         !- Name
    Smooth,                  !- Roughness
    0.20,                    !- Thickness {m}
    2.1,                     !- Conductivity {W/m-K}
    2400.,                   !- Density {kg/m3}
    850.0,                   !- Specific Heat {J/kg-K}
    0.000001,                !- Thermal Absorptance
    1.0,                     !- Solar Absorptance
    0.000001;                !- Visible Absorptance

  Construction,
    CONST 1,                 !- Name
    Type 1-OuterLayer,       !- Outside Layer
    Type 1-InsulatingLayer,  !- Layer 2
    Type 1-Masonry,          !- Layer 3
    Type 1-InternalPlaster;  !- Layer 4

  Construction,
    CONST 2,                 !- Name
    Type 2-GypsumPlaster,    !- Outside Layer
    Type 2-InsulatingLayer,  !- Layer 2
    Type 2-GypsumPlaster;    !- Layer 3

  Construction,
    CONST 3-Ceiling,         !- Name
    Type 3-PlasticCovering-Exterior,  !- Outside Layer
    Type 3-CementFloor,      !- Layer 2
    Type 3-InsulatingLayer,  !- Layer 3
    Type 3-Concrete-Interior;!- Layer 4

  Construction,
    CONST 3-Floor,           !- Name
    Type 3-Concrete-Exterior,!- Outside Layer
    Type 3-InsulatingLayer,  !- Layer 2
    Type 3-CementFloor,      !- Layer 3
    Type 3-PlasticCovering-Interior;  !- Layer 4

  Construction,
    CONST 4-Ceiling,         !- Name
    Type 4-PlasticCovering-Exterior,  !- Outside Layer
    Type 4-CementFloor,      !- Layer 2
    Type 4-InsulatingLayer,  !- Layer 3
    Type 4-Concrete,         !- Layer 4
    Type 4-InsulatingLayer2, !- Layer 5
    Type 4-AcousticBoard-Interior;  !- Layer 6

  Construction,
    CONST 4-Floor,           !- Name
    Type 4-AcousticBoard-Exterior,  !- Outside Layer
    Type 4-InsulatingLayer2, !- Layer 2
    Type 4-Concrete,         !- Layer 3
    Type 4-InsulatingLayer,  !- Layer 4
    Type 4-CementFloor,      !- Layer 5
    Type 4-PlasticCovering-Interior;  !- Layer 6

  Construction,
    CONST 5,                 !- Name
    Type 5-ExternalLayer,    !- Outside Layer
    Type 5-InsulatingLayer,  !- Layer 2
    Type 5-Concrete;         !- Layer 3

  WindowMaterial:Glazing,
    Glass Type 1,            !- Name
    SpectralAverage,         !- Optical Data Type
    ,                        !- Window Glass Spectral Data Set Name
    0.003175,                !- Thickness {m}
    0.84,                    !- Solar Transmittance at Normal Incidence
    0.08,                    !- Front Side Solar Reflectance at Normal Incidence
    0.08,                    !- Back Side Solar Reflectance at Normal Incidence
    0.84,                    !- Visible Transmittance at Normal Incidence
    0.08,                    !- Front Side Visible Reflectance at Normal Incidence
    0.08,                    !- Back Side Visible Reflectance at Normal Incidence
    0.0,                     !- Infrared Transmittance at Normal Incidence
    0.000001,                !- Front Side Infrared Hemispherical Emissivity
    0.000001,                !- Back Side Infrared Hemispherical Emissivity
    100.;                    !- Conductivity {W/m-K}

  Material:AirGap,
    Air Space Resistance 1,  !- Name
    0.08;                    !- Thermal Resistance {m2-K/W}

  Material:AirGap,
    Air Space Resistance 2,  !- Name
    0.173;                   !- Thermal Resistance {m2-K/W}

!  MATERIAL:WINDOWGLASS,
!    Glass Type 1,            !- Name
!    SpectralAverage,         !- Optical Data Type
!    ,                        !- Name of Window Glass Spectral Data Set
!    0.003175,                !- Thickness {m}
!    0.86156,                 !- Solar Transmittance at Normal Incidence
!    0.07846,                 !- Solar Reflectance at Normal Incidence: Front Side
!    0.07846,                 !- Solar Reflectance at Normal Incidence: Back Side
!    0.91325,                 !- Visible Transmittance at Normal Incidence
!    0.08200,                 !- Visible Reflectance at Normal Incidence: Front Side
!    0.08200,                 !- Visible Reflectance at Normal Incidence: Back Side
!    0.0,                     !- IR Transmittance at Normal Incidence
!    0.84,                    !- IR Hemispherical Emissivity: Front Side
!    0.84,                    !- IR Hemispherical Emissivity: Back Side
!    1.06;                    !- Conductivity {W/m-K}
!

  WindowMaterial:Gas,
    AIR 13MM,                !- Name
    Air,                     !- Gas Type
    0.0127;                  !- Thickness {m}

  WindowMaterial:Gas,
    AIR 6MM,                 !- Name
    Air,                     !- Gas Type
    0.0063;                  !- Thickness {m}

  WindowMaterial:Gas,
    AIR 3MM,                 !- Name
    Air,                     !- Gas Type
    0.0032;                  !- Thickness {m}

  WindowMaterial:Gas,
    AIR 2MM,                 !- Name
    Air,                     !- Gas Type
    0.0021;                  !- Thickness {m}

  WindowMaterial:Gas,
    AIR 2.4MM,               !- Name
    Air,                     !- Gas Type