!-Generator IDFEditor 1.29a
!-Option SortedOrder
!-NOTE: All comments with '!-' are ignored by the IDFEditor and are generated automatically.
!-      Use '!' comments if they need to be retained when using the IDFEditor.
!-   ===========  ALL OBJECTS IN CLASS: VERSION ===========
! Multi-Zone With Airflow BESTEST Case MA306.idf
! Basic file description: BESTEST Low-Mass Building with Adiabatic Surfaces
! Author:   R. H. Henninger,  GARD Analytics, Inc.
! Date:     December 9, 2008
! Run:      Design Day run
! Building: Fictional 3 zone building with abiabatic surfaces and no exterior openings.
!           One internal opening between ZONE A and ZONE B
!           One internal opening between ZONE B and ZONE C
!           No internal load, no infiltration
!           ZONE A setpoint temperature = 15C
!           ZONE B setpoint temperature = 20C
!           ZONE C setpoint temperature = 25C
!           Temperature induced flow through internal openings
!           Outdoor DBT = Zone Setpoint = N/A
!           Constant wind speed = 0.0 m/s
! Internal: 0.0 W .
! System:   None.
! Plant:    None.
! Modified:

  VERSION,.;

!-   ===========  ALL OBJECTS IN CLASS: BUILDING ===========

  Building,
    Multi-Zone Airflow Case MA306,  !- Name
    0.000,                   !- North Axis {deg}
    Country,                 !- Terrain
    3.9999999E-02,           !- Loads Convergence Tolerance Value
    4.0000002E-03,           !- Temperature Convergence Tolerance Value {deltaC}
    FullInteriorAndExterior, !- Solar Distribution
    ,                        !- Maximum Number of Warmup Days
    6;                       !- Minimum Number of Warmup Days

!-   ===========  ALL OBJECTS IN CLASS: TIMESTEP IN HOUR ===========

  Timestep,4;

!-   ===========  ALL OBJECTS IN CLASS: INSIDE CONVECTION ALGORITHM ===========

  SurfaceConvectionAlgorithm:Inside,Simple;

!-   ===========  ALL OBJECTS IN CLASS: OUTSIDE CONVECTION ALGORITHM ===========

  SurfaceConvectionAlgorithm:Outside,SimpleCombined;

!-   ===========  ALL OBJECTS IN CLASS: ZONE VOLUME CAPACITANCE MULTIPLIER ===========

  ZoneCapacitanceMultiplier:ResearchSpecial,
    1,                       !- Temperature Capacity Multiplier
    1,                       !- Humidity Capacity Multiplier
    1,                       !- Carbon Dioxide Capacity Multiplier
    1.0;                     !- Generic Contaminant Capacity Multiplier

!-   ===========  ALL OBJECTS IN CLASS: RUN CONTROL ===========

  SimulationControl,
    No,                      !- Do Zone Sizing Calculation
    No,                      !- Do System Sizing Calculation
    No,                      !- Do Plant Sizing Calculation
    Yes,                     !- Run Simulation for Sizing Periods
    No;                      !- Run Simulation for Weather File Run Periods

!-   ===========  ALL OBJECTS IN CLASS: LOCATION ===========

  Site:Location,
    MIAMI,                   !- Name
    25.8,                    !- Latitude {deg}
    -80.3,                   !- Longitude {deg}
    -5.0,                    !- Time Zone {hr}
    2.0;                     !- Elevation {m}

!-   ===========  ALL OBJECTS IN CLASS: SITE ATMOSPHERIC VARIATION ===========

  Site:HeightVariation,
    0.0,                     !- Wind Speed Profile Exponent
    370,                     !- Wind Speed Profile Boundary Layer Thickness {m}
    0.0;                     !- Air Temperature Gradient Coefficient {K/m}

!-   ===========  ALL OBJECTS IN CLASS: DESIGNDAY ===========

  SizingPeriod:DesignDay,
    MIAMI_FL_USA,            !- Name
    7,                       !- Month
    21,                      !- Day of Month
    SummerDesignDay,         !- Day Type
    30.0,                    !- Maximum Dry-Bulb Temperature {C}
    0.0,                     !- Daily Dry-Bulb Temperature Range {deltaC}
    ,                        !- Dry-Bulb Temperature Range Modifier Type
    ,                        !- Dry-Bulb Temperature Range Modifier Day Schedule Name
    DewPoint,                !- Humidity Condition Type
    -56.6,                   !- Wetbulb or DewPoint at Maximum Dry-Bulb {C}
    ,                        !- Humidity Condition Day Schedule Name
    ,                        !- Humidity Ratio at Maximum Dry-Bulb {kgWater/kgDryAir}
    ,                        !- Enthalpy at Maximum Dry-Bulb {J/kg}
    ,                        !- Daily Wet-Bulb Temperature Range {deltaC}
    101300.,                 !- Barometric Pressure {Pa}
    0.0,                     !- Wind Speed {m/s}
    0.0,                     !- Wind Direction {deg}
    No,                      !- Rain Indicator
    No,                      !- Snow Indicator
    No,                      !- Daylight Saving Time Indicator
    ASHRAEClearSky,          !- Solar Model Indicator
    ,                        !- Beam Solar Day Schedule Name
    ,                        !- Diffuse Solar Day Schedule Name
    ,                        !- ASHRAE Clear Sky Optical Depth for Beam Irradiance (taub) {dimensionless}
    ,                        !- ASHRAE Clear Sky Optical Depth for Diffuse Irradiance (taud) {dimensionless}
    1.0;                     !- Sky Clearness

!-   ===========  ALL OBJECTS IN CLASS: MATERIAL:REGULAR ===========
!  RunPeriod,
!    1,
!    1,
!    1,
!    31,
!    Sunday,
!    Yes,
!    Yes,
!    ,
!    ,
!    ;
!B4 - 3 IN INSULATION

  Material,
    INSULATION-EXT,          !- Name
    VeryRough,               !- Roughness
    1.0,                     !- Thickness {m}
    0.0000001,               !- Conductivity {W/m-K}
    32.03000,                !- Density {kg/m3}
    830.0000,                !- Specific Heat {J/kg-K}
    0.0000001,               !- Thermal Absorptance
    0.0000001,               !- Solar Absorptance
    0.0000001;               !- Visible Absorptance

!B4 - 3 IN INSULATION

  Material,
    INSULATION-INT,          !- Name
    VeryRough,               !- Roughness
    1.0,                     !- Thickness {m}
    0.0000001,               !- Conductivity {W/m-K}
    32.03000,                !- Density {kg/m3}
    830.0000,                !- Specific Heat {J/kg-K}
    0.0000001,               !- Thermal Absorptance
    0.0000001,               !- Solar Absorptance
    0.0000001;               !- Visible Absorptance

  Material,
    1.375in-Solid-Core,      !- Name
    Smooth,                  !- Roughness
    3.4925E-02,              !- Thickness {m}
    0.1525000,               !- Conductivity {W/m-K}
    614.5000,                !- Density {kg/m3}
    1630.0000,               !- Specific Heat {J/kg-K}
    0.9000000,               !- Thermal Absorptance
    0.9200000,               !- Solar Absorptance
    0.9200000;               !- Visible Absorptance

  Material,
    ZONE COMMON WALL,        !- Name
    Rough,                   !- Roughness
    1.00000,                 !- Thickness {m}
    0.000001,                !- Conductivity {W/m-K}
    1.00,                    !- Density {kg/m3}
    1000.00,                 !- Specific Heat {J/kg-K}
    0.0000001,               !- Thermal Absorptance
    0.0000001,               !- Solar Absorptance
    0.0000001;               !- Visible Absorptance

!-   ===========  ALL OBJECTS IN CLASS: CONSTRUCTION ===========
! Material layer names follow:

  Construction,
    LTWALL,                  !- Name
    INSULATION-EXT,          !- Outside Layer
    INSULATION-INT;          !- Layer 2

  Construction,
    LTWALL-Reverse,          !- Name
    INSULATION-INT,          !- Outside Layer
    INSULATION-EXT;          !- Layer 2

  Construction,
    DoorConstruct,           !- Name
    1.375in-Solid-Core;      !- Outside Layer

  Construction,
    COMMONWALL,              !- Name
    ZONE COMMON WALL;        !- Outside Layer

!-   ===========  ALL OBJECTS IN CLASS: ZONE ===========

  Zone,
    ZONE A,                  !- Name
    0.0000,                  !- Direction of Relative North {deg}
    0.0000,                  !- X Origin {m}
    6.0000,                  !- Y Origin {m}
    0.0000,                  !- Z Origin {m}
    1,                       !- Type
    1,                       !- Multiplier
    2.7000,                  !- Ceiling Height {m}
    129.6;                   !- Volume {m3}

  Zone,
    ZONE B,                  !- Name
    0.0000,                  !- Direction of Relative North {deg}
    0.0000,                  !- X Origin {m}
    0.0000,                  !- Y Origin {m}
    0.0000,                  !- Z Origin {m}
    1,                       !- Type
    1,                       !- Multiplier
    2.7000,                  !- Ceiling Height {m}
    129.6;                   !- Volume {m3}

  Zone,
    ZONE C,                  !- Name
    0.0000,                  !- Direction of Relative North {deg}
    0.0000,                  !- X Origin {m}
    -6.0000,                 !- Y Origin {m}
    0.0000,                  !- Z Origin {m}
    1,                       !- Type
    1,                       !- Multiplier
    2.7000,                  !- Ceiling Height {m}
    129.6;                   !- Volume {m3}

!-   ===========  ALL OBJECTS IN CLASS: SURFACEGEOMETRY ===========

  GlobalGeometryRules,
    UpperLeftCorner,         !- Starting Vertex Position
    Counterclockwise,        !- Vertex Entry Direction
    WorldCoordinateSystem;   !- Coordinate System

!-   ===========  ALL OBJECTS IN CLASS: SURFACE:HEATTRANSFER ===========

  BuildingSurface:Detailed,
    ZONE A SURFACE NORTH,    !- Name
    Wall,                    !- Surface Type
    LTWALL,                  !- Construction Name
    ZONE A,                  !- Zone Name
    Outdoors,                !- Outside Boundary Condition
    ,                        !- Outside Boundary Condition Object
    NoSun,                   !- Sun Exposure
    WindExposed,             !- Wind Exposure
    0.0,                     !- View Factor to Ground
    4,                       !- Number of Vertices
    8.00,12.00,2.70,  !- X,Y,Z ==> Vertex 1 {m}
    8.00,12.00,0.00,  !- X,Y,Z ==> Vertex 2 {m}
    0.00,12.00,0.00,  !- X,Y,Z ==> Vertex 3 {m}
    0.00,12.00,2.70;  !- X,Y,Z ==> Vertex 4 {m}

  BuildingSurface:Detailed,
    ZONE A SURFACE EAST,     !- Name
    Wall,                    !- Surface Type
    LTWALL,                  !- Construction Name
    ZONE A,                  !- Zone Name
    Surface,                 !- Outside Boundary Condition
    ZONE A SURFACE EAST,     !- Outside Boundary Condition Object
    NoSun,                   !- Sun Exposure
    NoWind,                  !- Wind Exposure
    0.0,                     !- View Factor to Ground
    4,                       !- Number of Vertices
    8.00,6.00,2.70,  !- X,Y,Z ==> Vertex 1 {m}
    8.00,6.00,0.00,  !- X,Y,Z ==> Vertex 2 {m}
    8.00,12.00,0.00,  !- X,Y,Z ==> Vertex 3 {m}
    8.00,12.00,2.70;  !- X,Y,Z ==> Vertex 4 {m}

  BuildingSurface:Detailed,
    ZONE A SURFACE SOUTH,    !- Name
    Wall,                    !- Surface Type
    COMMONWALL,              !- Construction Name
    ZONE A,                  !- Zone Name
    Surface,                 !- Outside Boundary Condition
    ZONE B SURFACE NORTH,    !- Outside Boundary Condition Object
    NoSun,                   !- Sun Exposure
    NoWind,                  !- Wind Exposure
    0.0,                     !- View Factor to Ground
    4,                       !- Number of Vertices
    0.00,6.00,2.70,  !- X,Y,Z ==> Vertex 1 {m}
    0.00,6.00,0.00,  !- X,Y,Z ==> Vertex 2 {m}
    8.00,6.00,0.00,  !- X,Y,Z ==> Vertex 3 {m}
    8.00,6.00,2.70;  !- X,Y,Z ==> Vertex 4 {m}

  BuildingSurface:Detailed,
    ZONE A SURFACE WEST,     !- Name
    Wall,                    !- Surface Type
    LTWALL,                  !- Construction Name
    ZONE A,                  !- Zone Name
    Surface,                 !- Outside Boundary Condition
    ZONE A SURFACE WEST,     !- Outside Boundary Condition Object
    NoSun,                   !- Sun Exposure
    NoWind,                  !- Wind Exposure
    0.0,                     !- View Factor to Ground
    4,                       !- Number of Vertices
    0.00,12.00,2.70,  !- X,Y,Z ==> Vertex 1 {m}
    0.00,12.00,0.00,  !- X,Y,Z ==> Vertex 2 {m}
    0.00,6.00,0.00,  !- X,Y,Z ==> Vertex 3 {m}
    0.00,6.00,2.70;  !- X,Y,Z ==> Vertex 4 {m}

  BuildingSurface:Detailed,
    ZONE A SURFACE FLOOR,    !- Name
    Floor,                   !- Surface Type
    LTWALL,                  !- Construction Name
    ZONE A,                  !- Zone Name
    Surface,                 !- Outside Boundary Condition
    ZONE A SURFACE FLOOR,    !- Outside Boundary Condition Object
    NoSun,                   !- Sun Exposure
    NoWind,                  !- Wind Exposure
    0.0,                     !- View Factor to Ground
    4,                       !- Number of Vertices
    0.000,6.000,0.000,  !- X,Y,Z ==> Vertex 1 {m}
    0.000,12.000,0.000,  !- X,Y,Z ==> Vertex 2 {m}
    8.000,12.000,0.000,  !- X,Y,Z ==> Vertex 3 {m}
    8.000,6.000,0.000;  !- X,Y,Z ==> Vertex 4 {m}

  BuildingSurface:Detailed,
    ZONE A SURFACE ROOF,     !- Name
    Roof,                    !- Surface Type
    LTWALL,                  !- Construction Name
    ZONE A,                  !- Zone Name
    Surface,                 !- Outside Boundary Condition
    ZONE A SURFACE ROOF,     !- Outside Boundary Condition Object
    NoSun,                   !- Sun Exposure
    NoWind,                  !- Wind Exposure
    0.0,                     !- View Factor to Ground
    4,                       !- Number of Vertices
    0.000,12.000,2.700,  !- X,Y,Z ==> Vertex 1 {m}
    0.000,6.000,2.700,  !- X,Y,Z ==> Vertex 2 {m}
    8.000,6.000,2.700,  !- X,Y,Z ==> Vertex 3 {m}
    8.000,12.000,2.700;  !- X,Y,Z ==> Vertex 4 {m}

  BuildingSurface:Detailed,
    ZONE B SURFACE NORTH,    !- Name
    Wall,                    !- Surface Type
    COMMONWALL,              !- Construction Name
    ZONE B,                  !- Zone Name
    Surface,                 !- Outside Boundary Condition
    ZONE A SURFACE SOUTH,    !- Outside Boundary Condition Object
    NoSun,                   !- Sun Exposure
    NoWind,                  !- Wind Exposure
    0.0,                     !- View Factor to Ground
    4,                       !- Number of Vertices
    8.00,6.00,2.70,  !- X,Y,Z ==> Vertex 1 {m}
    8.00,6.00,0.00,  !- X,Y,Z ==> Vertex 2 {m}
    0.00,6.00,0.00,  !- X,Y,Z ==> Vertex 3 {m}
    0.00,6.00,2.70;  !- X,Y,Z ==> Vertex 4 {m}

  BuildingSurface:Detailed,
    ZONE B SURFACE EAST,     !- Name
    Wall,                    !- Surface Type
    LTWALL,                  !- Construction Name
    ZONE B,                  !- Zone Name
    Surface,                 !- Outside Boundary Condition
    ZONE B SURFACE EAST,     !- Outside Boundary Condition Object
    NoSun,                   !- Sun Exposure
    NoWind,                  !- Wind Exposure
    0.0,                     !- View Factor to Ground
    4,                       !- Number of Vertices
    8.00,0.00,2.70,  !- X,Y,Z ==> Vertex 1 {m}
    8.00,0.00,0.00,  !- X,Y,Z ==> Vertex 2 {m}
    8.00,6.00,0.00,  !- X,Y,Z ==> Vertex 3 {m}
    8.00,6.00,2.70;  !- X,Y,Z ==> Vertex 4 {m}

  BuildingSurface:Detailed,
    ZONE B SURFACE SOUTH,    !- Name
    Wall,                    !- Surface Type
    COMMONWALL,              !- Construction Name
    ZONE B,                  !- Zone Name
    Surface,                 !- Outside Boundary Condition
    ZONE C SURFACE NORTH,    !- Outside Boundary Condition Object
    NoSun,                   !- Sun Exposure
    NoWind,                  !- Wind Exposure
    0.0,                     !- View Factor to Ground
    4,                       !- Number of Vertices
    0.00,0.00,2.70,  !- X,Y,Z ==> Vertex 1 {m}
    0.00,0.00,0.00,  !- X,Y,Z ==> Vertex 2 {m}
    8.00,0.00,0.00,  !- X,Y,Z ==> Vertex 3 {m}
    8.00,0.00,2.70;  !- X,Y,Z ==> Vertex 4 {m}

  BuildingSurface:Detailed,
    ZONE B SURFACE WEST,     !- Name
    Wall,                    !- Surface Type
    LTWALL,                  !- Construction Name
    ZONE B,                  !- Zone Name
    Surface,                 !- Outside Boundary Condition
    ZONE B SURFACE WEST,     !- Outside Boundary Condition Object
    NoSun,                   !- Sun Exposure
    NoWind,                  !- Wind Exposure
    0.0,                     !- View Factor to Ground
    4,                       !- Number of Vertices
    0.00,6.00,2.70,  !- X,Y,Z ==> Vertex 1 {m}
    0.00,6.00,0.00,  !- X,Y,Z ==> Vertex 2 {m}
    0.00,0.00,0.00,  !- X,Y,Z ==> Vertex 3 {m}
    0.00,0.00,2.70;  !- X,Y,Z ==> Vertex 4 {m}

  BuildingSurface:Detailed,
    ZONE B SURFACE FLOOR,    !- Name
    Floor,                   !- Surface Type
    LTWALL,                  !- Construction Name
    ZONE B,                  !- Zone Name
    Surface,                 !- Outside Boundary Condition
    ZONE B SURFACE FLOOR,    !- Outside Boundary Condition Object
    NoSun,                   !- Sun Exposure
    NoWind,                  !- Wind Exposure
    0.0,                     !- View Factor to Ground
    4,                       !- Number of Vertices
    0.000,0.000,0.000,  !- X,Y,Z ==> Vertex 1 {m}
    0.000,6.000,0.000,  !- X,Y,Z ==> Vertex 2 {m}
    8.000,6.000,0.000,  !- X,Y,Z ==> Vertex 3 {m}
    8.000,0.000,0.000;  !- X,Y,Z ==> Vertex 4 {m}

  BuildingSurface:Detailed,
    ZONE B SURFACE ROOF,     !- Name
    Roof,                    !- Surface Type
    LTWALL,                  !- Construction Name
    ZONE B,                  !- Zone Name
    Surface,                 !- Outside Boundary Condition
    ZONE B SURFACE ROOF,     !- Outside Boundary Condition Object
    NoSun,                   !- Sun Exposure
    NoWind,                  !- Wind Exposure
    0.0,                     !- View Factor to Ground
    4,                       !- Number of Vertices
    0.000,6.000,2.700,  !- X,Y,Z ==> Vertex 1 {m}
    0.000,0.000,2.700,  !- X,Y,Z ==> Vertex 2 {m}
    8.000,0.000,2.700,  !- X,Y,Z ==> Vertex 3 {m}
    8.000,6.000,2.700;  !- X,Y,Z ==> Vertex 4 {m}

  BuildingSurface:Detailed,
    ZONE C SURFACE NORTH,    !- Name
    Wall,                    !- Surface Type
    COMMONWALL,              !- Construction Name
    ZONE C,                  !- Zone Name
    Surface,                 !- Outside Boundary Condition
    ZONE B SURFACE SOUTH,    !- Outside Boundary Condition Object
    NoSun,                   !- Sun Exposure
    NoWind,                  !- Wind Exposure
    0.0,                     !- View Factor to Ground
    4,                       !- Number of Vertices
    8.00,0.00,2.70,  !- X,Y,Z ==> Vertex 1 {m}
    8.00,0.00,0.00,  !- X,Y,Z ==> Vertex 2 {m}
    0.00,0.00,0.00,  !- X,Y,Z ==> Vertex 3 {m}
    0.00,0.00,2.70;  !- X,Y,Z ==> Vertex 4 {m}

  BuildingSurface:Detailed,
    ZONE C SURFACE EAST,     !- Name
    Wall,                    !- Surface Type
    LTWALL,                  !- Construction Name
    ZONE C,                  !- Zone Name
    Surface,                 !- Outside Boundary Condition
    ZONE C SURFACE EAST,     !- Outside Boundary Condition Object
    NoSun,                   !- Sun Exposure
    NoWind,                  !- Wind Exposure
    0.0,                     !- View Factor to Ground
    4,                       !- Number of Vertices
    8.00,-6.00,2.70,  !- X,Y,Z ==> Vertex 1 {m}
    8.00,-6.00,0.00,  !- X,Y,Z ==> Vertex 2 {m}
    8.00,0.00,0.00,  !- X,Y,Z ==> Vertex 3 {m}
    8.00,0.00,2.70;  !- X,Y,Z ==> Vertex 4 {m}

  BuildingSurface:Detailed,
    ZONE C SURFACE SOUTH,    !- Name
    Wall,                    !- Surface Type
    LTWALL,                  !- Construction Name
    ZONE C,                  !- Zone Name
    Outdoors,                !- Outside Boundary Condition
    ,                        !- Outside Boundary Condition Object
    NoSun,                   !- Sun Exposure
    NoWind,                  !- Wind Exposure
    0.0,                     !- View Factor to Ground
    4,                       !- Number of Vertices
    0.00,-6.00,2.70,  !- X,Y,Z ==> Vertex 1 {m}
    0.00,-6.00,0.00,  !- X,Y,Z ==> Vertex 2 {m}
    8.00,-6.00,0.00,  !- X,Y,Z ==> Vertex 3 {m}
    8.00,-6.00,2.70;  !- X,Y,Z ==> Vertex 4 {m}

  BuildingSurface:Detailed,
    ZONE C SURFACE WEST,     !- Name
    Wall,                    !- Surface Type
    LTWALL,                  !- Construction Name
    ZONE C,                  !- Zone Name
    Surface,                 !- Outside Boundary Condition
    ZONE C SURFACE WEST,     !- Outside Boundary Condition Object
    NoSun,                   !- Sun Exposure
    NoWind,                  !- Wind Exposure
    0.0,                     !- View Factor to Ground
    4,                       !- Number of Vertices
    0.00,0.00,2.70,  !- X,Y,Z ==> Vertex 1 {m}
    0.00,0.00,0.00,  !- X,Y,Z ==> Vertex 2 {m}
    0.00,-6.00,0.00,  !- X,Y,Z ==> Vertex 3 {m}
    0.00,-6.00,2.70;  !- X,Y,Z ==> Vertex 4 {m}

  BuildingSurface:Detailed,
    ZONE C SURFACE FLOOR,    !- Name
    Floor,                   !- Surface Type
    LTWALL,                  !- Construction Name
    ZONE C,                  !- Zone Name
    Surface,                 !- Outside Boundary Condition
    ZONE C SURFACE FLOOR,    !- Outside Boundary Condition Object
    NoSun,                   !- Sun Exposure
    NoWind,                  !- Wind Exposure
    0.0,                     !- View Factor to Ground
    4,                       !- Number of Vertices
    0.000,-6.000,0.000,  !- X,Y,Z ==> Vertex 1 {m}
    0.000,0.000,0.000,  !- X,Y,Z ==> Vertex 2 {m}
    8.000,0.000,0.000,  !- X,Y,Z ==> Vertex 3 {m}
    8.000,-6.000,0.000;  !- X,Y,Z ==> Vertex 4 {m}

  BuildingSurface:Detailed,
    ZONE C SURFACE ROOF,     !- Name
    Roof,                    !- Surface Type
    LTWALL,                  !- Construction Name
    ZONE C,                  !- Zone Name
    Surface,                 !- Outside Boundary Condition
    ZONE C SURFACE ROOF,     !- Outside Boundary Condition Object
    NoSun,                   !- Sun Exposure
    NoWind,                  !- Wind Exposure
    0.0,                     !- View Factor to Ground
    4,                       !- Number of Vertices
    0.000,0.000,2.700,  !- X,Y,Z ==> Vertex 1 {m}
    0.000,-6.000,2.700,  !- X,Y,Z ==> Vertex 2 {m}
    8.000,-6.000,2.700,  !- X,Y,Z ==> Vertex 3 {m}
    8.000,0.000,2.700;  !- X,Y,Z ==> Vertex 4 {m}

!-   ===========  ALL OBJECTS IN CLASS: SURFACE:HEATTRANSFER:SUB ===========

  FenestrationSurface:Detailed,
    ZONE SUBSURFACE 1,       !- Name
    Door,                    !- Surface Type
    LTWALL,                  !- Construction Name
    ZONE A SURFACE NORTH,    !- Building Surface Name
    ,                        !- Outside Boundary Condition Object
    0.0,                     !- View Factor to Ground
    ,                        !- Shading Control Name
    ,                        !- Frame and Divider Name
    1,                       !- Multiplier
    4,                       !- Number of Vertices
    4.5,12.00,0.55,  !- X,Y,Z ==> Vertex 1 {m}
    4.5,12.00,0.45,  !- X,Y,Z ==> Vertex 2 {m}
    3.5,12.00,0.45,  !- X,Y,Z ==> Vertex 3 {m}
    3.5,12.00,0.55;  !- X,Y,Z ==> Vertex 4 {m}

  FenestrationSurface:Detailed,
    ZONE SUBSURFACE 2,       !- Name
    Door,                    !- Surface Type
    LTWALL,                  !- Construction Name
    ZONE A SURFACE SOUTH,    !- Building Surface Name
    ZONE SUBSURFACE 3,       !- Outside Boundary Condition Object
    0.0,                     !- View Factor to Ground
    ,                        !- Shading Control Name
    ,                        !- Frame and Divider Name
    1,                       !- Multiplier
    4,                       !- Number of Vertices
    3.5,6.00,2.00,  !- X,Y,Z ==> Vertex 1 {m}
    3.5,6.00,0.00,  !- X,Y,Z ==> Vertex 2 {m}
    4.5,6.00,0.00,  !- X,Y,Z ==> Vertex 3 {m}
    4.5,6.00,2.00;  !- X,Y,Z ==> Vertex 4 {m}

  FenestrationSurface:Detailed,
    ZONE SUBSURFACE 3,       !- Name
    Door,                    !- Surface Type
    LTWALL-Reverse,          !- Construction Name
    ZONE B SURFACE NORTH,    !- Building Surface Name
    ZONE SUBSURFACE 2,       !- Outside Boundary Condition Object
    0.0,                     !- View Factor to Ground
    ,                        !- Shading Control Name
    ,                        !- Frame and Divider Name
    1,                       !- Multiplier
    4,                       !- Number of Vertices
    4.5,6.00,2.00,  !- X,Y,Z ==> Vertex 1 {m}
    4.5,6.00,0.00,  !- X,Y,Z ==> Vertex 2 {m}
    3.5,6.00,0.00,  !- X,Y,Z ==> Vertex 3 {m}
    3.5,6.00,2.00;  !- X,Y,Z ==> Vertex 4 {m}

  FenestrationSurface:Detailed,
    ZONE SUBSURFACE 4,       !- Name
    Door,                    !- Surface Type
    LTWALL,                  !- Construction Name
    ZONE B SURFACE SOUTH,    !- Building Surface Name
    ZONE SUBSURFACE 5,       !- Outside Boundary Condition Object
    0.0000000,               !- View Factor to Ground
    ,                        !- Shading Control Name
    ,                        !- Frame and Divider Name
    1,                       !- Multiplier
    4,                       !- Number of Vertices
    3.5,0.00,2.00,  !- X,Y,Z ==> Vertex 1 {m}
    3.5,0.00,0.00,  !- X,Y,Z ==> Vertex 2 {m}
    4.5,0.00,0.00,  !- X,Y,Z ==> Vertex 3 {m}
    4.5,0.00,2.00;  !- X,Y,Z ==> Vertex 4 {m}

  FenestrationSurface:Detailed,
    ZONE SUBSURFACE 5,       !- Name
    Door,                    !- Surface Type
    LTWALL-Reverse,          !- Construction Name
    ZONE C SURFACE NORTH,    !- Building Surface Name
    ZONE SUBSURFACE 4,       !- Outside Boundary Condition Object
    0.0,                     !- View Factor to Ground
    ,                        !- Shading Control Name
    ,                        !- Frame and Divider Name
    1,                       !- Multiplier
    4,                       !- Number of Vertices
    4.5,0.00,2.00,  !- X,Y,Z ==> Vertex 1 {m}
    4.5,0.00,0.00,  !- X,Y,Z ==> Vertex 2 {m}
    3.5,0.00,0.00,  !- X,Y,Z ==> Vertex 3 {m}
    3.5,0.00,2.00;  !- X,Y,Z ==> Vertex 4 {m}

  FenestrationSurface:Detailed,
    ZONE SUBSURFACE 6,       !- Name
    Door,                    !- Surface Type
    LTWALL,                  !- Construction Name
    ZONE C SURFACE SOUTH,    !- Building Surface Name
    ,                        !- Outside Boundary Condition Object
    0.0,                     !- View Factor to Ground
    ,                        !- Shading Control Name
    ,                        !- Frame and Divider Name
    1,                       !- Multiplier
    4,                       !- Number of Vertices
    3.5,-6.00,2.25,  !- X,Y,Z ==> Vertex 1 {m}
    3.5,-6.00,2.15,  !- X,Y,Z ==> Vertex 2 {m}
    4.5,-6.00,2.15,  !- X,Y,Z ==> Vertex 3 {m}
    4.5,-6.00,2.25;  !- X,Y,Z ==> Vertex 4 {m}

!-   ===========  ALL OBJECTS IN CLASS: SCHEDULETYPE ===========

  ScheduleTypeLimits,
    Fraction,                !- Name
    0.0,                     !- Lower Limit Value
    1.0,                     !- Upper Limit Value
    Continuous;              !- Numeric Type

  ScheduleTypeLimits,
    Any Number,              !- Name
    0.0,                     !- Lower Limit Value
    100.0,                   !- Upper Limit Value
    Continuous;              !- Numeric Type

  ScheduleTypeLimits,
    Temperature,             !- Name
    -60,                     !- Lower Limit Value
    200,                     !- Upper Limit Value
    Continuous;              !- Numeric Type

  ScheduleTypeLimits,
    Control Type,            !- Name
    0,                       !- Lower Limit Value
    4,                       !- Upper Limit Value
    Discrete;                !- Numeric Type

  ScheduleTypeLimits,
    COMPACT HVAC Any Number; !- Name

!-   ===========  ALL OBJECTS IN CLASS: DAYSCHEDULE ===========

  Schedule:Day:Hourly,
    Day Sch 1,               !- Name
    Fraction,                !- Schedule Type Limits Name
    0.00,                    !- Hour 1
    0.00,                    !- Hour 2
    0.00,                    !- Hour 3
    0.00,                    !- Hour 4
    0.00,                    !- Hour 5
    0.00,                    !- Hour 6
    0.00,                    !- Hour 7
    0.00,                    !- Hour 8
    0.00,                    !- Hour 9
    0.00,                    !- Hour 10
    0.00,                    !- Hour 11
    0.00,                    !- Hour 12
    0.00,                    !- Hour 13
    0.00,                    !- Hour 14
    0.00,                    !- Hour 15
    0.00,                    !- Hour 16
    0.00,                    !- Hour 17
    0.00,                    !- Hour 18
    0.00,                    !- Hour 19
    0.00,                    !- Hour 20
    0.00,                    !- Hour 21
    0.00,                    !- Hour 22
    0.00,                    !- Hour 23
    0.00;                    !- Hour 24

! Next Arguments represent each hour of day

  Schedule:Day:Hourly,
    ZONE A HeatCool Setpoint All Days,  !- Name
    Temperature,             !- Schedule Type Limits Name
    15.0,                    !- Hour 1
    15.0,                    !- Hour 2
    15.0,                    !- Hour 3
    15.0,                    !- Hour 4
    15.0,                    !- Hour 5
    15.0,                    !- Hour 6
    15.0,                    !- Hour 7