!-Generator IDFEditor 1.38a
!-Option OriginalOrderTop UseSpecialFormat ViewInIPunits
!-NOTE: All comments with '!-' are ignored by the IDFEditor and are generated automatically.
!-      Use '!' comments if they need to be retained when using the IDFEditor.

  VERSION,.;

  Building,
    L100A,                   !- Name
    0.0,                     !- North Axis {deg}
    Suburbs,                 !- Terrain
    0.04,                    !- Loads Convergence Tolerance Value
    0.004,                   !- Temperature Convergence Tolerance Value {deltaC}
    FullInteriorAndExterior, !- Solar Distribution
    ,                        !- Maximum Number of Warmup Days
    6;                       !- Minimum Number of Warmup Days

  Timestep,4;

  SurfaceConvectionAlgorithm:Inside,TARP;

  SurfaceConvectionAlgorithm:Outside,DOE-2;

  HeatBalanceAlgorithm,ConductionTransferFunction;

  ShadowCalculation,
    AverageOverDaysInFrequency,  !- Calculation Method
    1;                       !- Calculation Frequency

  SimulationControl,
    No,                      !- Do Zone Sizing Calculation
    No,                      !- Do System Sizing Calculation
    No,                      !- Do Plant Sizing Calculation
    No,                      !- Run Simulation for Sizing Periods
    Yes;                     !- Run Simulation for Weather File Run Periods

  RunPeriod,
    ,                        !- Name
    1,                       !- Begin Month
    1,                       !- Begin Day of Month
    12,                      !- End Month
    31,                      !- End Day of Month
    UseWeatherFile,          !- Day of Week for Start Day
    No,                      !- Use Weather File Holidays and Special Days
    No,                      !- Use Weather File Daylight Saving Period
    No,                      !- Apply Weekend Holiday Rule
    No,                      !- Use Weather File Rain Indicators
    No,                      !- Use Weather File Snow Indicators
    1;                       !- Number of Times Runperiod to be Repeated

  Window,
    East 1,                  !- Name
    WINDOW SINGLE PANE,      !- Construction Name
    Z1 EAST WALL BATTING,    !- Building Surface Name
    ,                        !- Shading Control Name
    Frame-Divider_1,         !- Frame and Divider Name
    1,                       !- Multiplier
    1.59377237461555,        !- Starting X Coordinate {m}
    0.679416966986256,       !- Starting Z Coordinate {m}
    0.774662321947641,       !- Length {m}
    1.3842325937005;         !- Height {m}

  Window,
    East 2,                  !- Name
    WINDOW SINGLE PANE,      !- Construction Name
    Z1 EAST WALL BATTING,    !- Building Surface Name
    ,                        !- Shading Control Name
    Frame-Divider_1,         !- Frame and Divider Name
    1,                       !- Multiplier
    3.72726832575057,        !- Starting X Coordinate {m}
    0.679416966986256,       !- Starting Z Coordinate {m}
    0.774662321947641,       !- Length {m}
    1.3842325937005;         !- Height {m}

  Window,
    East 3,                  !- Name
    WINDOW SINGLE PANE,      !- Construction Name
    Z1 EAST WALL BATTING,    !- Building Surface Name
    ,                        !- Shading Control Name
    Frame-Divider_1,         !- Frame and Divider Name
    1,                       !- Multiplier
    5.86076427688558,        !- Starting X Coordinate {m}
    0.679416966986256,       !- Starting Z Coordinate {m}
    0.774662321947641,       !- Length {m}
    1.3842325937005;         !- Height {m}

  Window,
    West 1,                  !- Name
    WINDOW SINGLE PANE,      !- Construction Name
    Z1 WEST WALL BATTING,    !- Building Surface Name
    ,                        !- Shading Control Name
    Frame-Divider_1,         !- Frame and Divider Name
    1,                       !- Multiplier
    1.28898723873912,        !- Starting X Coordinate {m}
    0.679416966986256,       !- Starting Z Coordinate {m}
    0.774662321947641,       !- Length {m}
    1.3842325937005;         !- Height {m}

  Window,
    West 2,                  !- Name
    WINDOW SINGLE PANE,      !- Construction Name
    Z1 WEST WALL BATTING,    !- Building Surface Name
    ,                        !- Shading Control Name
    Frame-Divider_1,         !- Frame and Divider Name
    1,                       !- Multiplier
    3.42248318987414,        !- Starting X Coordinate {m}
    0.679416966986256,       !- Starting Z Coordinate {m}
    0.774662321947641,       !- Length {m}
    1.3842325937005;         !- Height {m}

  Window,
    West 3,                  !- Name
    WINDOW SINGLE PANE,      !- Construction Name
    Z1 WEST WALL BATTING,    !- Building Surface Name
    ,                        !- Shading Control Name
    Frame-Divider_1,         !- Frame and Divider Name
    1,                       !- Multiplier
    5.86076427688558,        !- Starting X Coordinate {m}
    0.679416966986256,       !- Starting Z Coordinate {m}
    0.774662321947641,       !- Length {m}
    1.3842325937005;         !- Height {m}

  Window,
    South 1,                 !- Name
    WINDOW SINGLE PANE,      !- Construction Name
    Z1 SOUTH WALL BATTING,   !- Building Surface Name
    ,                        !- Shading Control Name
    Frame-Divider_1,         !- Frame and Divider Name
    1,                       !- Multiplier
    1.59377237461555,        !- Starting X Coordinate {m}
    0.679416966986256,       !- Starting Z Coordinate {m}
    0.774662321947641,       !- Length {m}
    1.3842325937005;         !- Height {m}

  Window,
    South 2,                 !- Name
    WINDOW SINGLE PANE,      !- Construction Name
    Z1 SOUTH WALL BATTING,   !- Building Surface Name
    ,                        !- Shading Control Name
    Frame-Divider_1,         !- Frame and Divider Name
    1,                       !- Multiplier
    4.33683859750343,        !- Starting X Coordinate {m}
    0.679416966986256,       !- Starting Z Coordinate {m}
    0.774662321947641,       !- Length {m}
    1.3842325937005;         !- Height {m}

  Window,
    South 3,                 !- Name
    WINDOW SINGLE PANE,      !- Construction Name
    Z1 SOUTH WALL BATTING,   !- Building Surface Name
    ,                        !- Shading Control Name
    Frame-Divider_1,         !- Frame and Divider Name
    1,                       !- Multiplier
    5.86076427688558,        !- Starting X Coordinate {m}
    0.679416966986256,       !- Starting Z Coordinate {m}
    0.774662321947641,       !- Length {m}
    1.3842325937005;         !- Height {m}

  Window,
    South 4,                 !- Name
    WINDOW SINGLE PANE,      !- Construction Name
    Z1 SOUTH WALL BATTING,   !- Building Surface Name
    ,                        !- Shading Control Name
    Frame-Divider_1,         !- Frame and Divider Name
    1,                       !- Multiplier
    7.38468995626774,        !- Starting X Coordinate {m}
    0.679416966986256,       !- Starting Z Coordinate {m}
    0.774662321947641,       !- Length {m}
    1.3842325937005;         !- Height {m}

  Window,
    South 5,                 !- Name
    WINDOW SINGLE PANE,      !- Construction Name
    Z1 SOUTH WALL BATTING,   !- Building Surface Name
    ,                        !- Shading Control Name
    Frame-Divider_1,         !- Frame and Divider Name
    1,                       !- Multiplier
    8.90861563564989,        !- Starting X Coordinate {m}
    0.679416966986256,       !- Starting Z Coordinate {m}
    0.774662321947641,       !- Length {m}
    1.3842325937005;         !- Height {m}

  Window,
    South 6,                 !- Name
    WINDOW SINGLE PANE,      !- Construction Name
    Z1 SOUTH WALL BATTING,   !- Building Surface Name
    ,                        !- Shading Control Name
    Frame-Divider_1,         !- Frame and Divider Name
    1,                       !- Multiplier
    13.4803926737964,        !- Starting X Coordinate {m}
    0.679416966986256,       !- Starting Z Coordinate {m}
    0.774662321947641,       !- Length {m}
    1.3842325937005;         !- Height {m}

  Window,
    North 1,                 !- Name
    WINDOW SINGLE PANE,      !- Construction Name
    Z1 NORTH WALL BATTING,   !- Building Surface Name
    ,                        !- Shading Control Name
    Frame-Divider_1,         !- Frame and Divider Name
    1,                       !- Multiplier
    1.59377237461555,        !- Starting X Coordinate {m}
    0.679416966986256,       !- Starting Z Coordinate {m}
    0.774662321947641,       !- Length {m}
    1.3842325937005;         !- Height {m}

  Window,
    North 2,                 !- Name
    WINDOW SINGLE PANE,      !- Construction Name
    Z1 NORTH WALL BATTING,   !- Building Surface Name
    ,                        !- Shading Control Name
    Frame-Divider_1,         !- Frame and Divider Name
    1,                       !- Multiplier
    4.33683859750343,        !- Starting X Coordinate {m}
    0.679416966986256,       !- Starting Z Coordinate {m}
    0.774662321947641,       !- Length {m}
    1.3842325937005;         !- Height {m}

  Window,
    North 3,                 !- Name
    WINDOW SINGLE PANE,      !- Construction Name
    Z1 NORTH WALL BATTING,   !- Building Surface Name
    ,                        !- Shading Control Name
    Frame-Divider_1,         !- Frame and Divider Name
    1,                       !- Multiplier
    8.60383049977346,        !- Starting X Coordinate {m}
    0.679416966986256,       !- Starting Z Coordinate {m}
    0.774662321947641,       !- Length {m}
    1.3842325937005;         !- Height {m}

  Window,
    North 4,                 !- Name
    WINDOW SINGLE PANE,      !- Construction Name
    Z1 NORTH WALL BATTING,   !- Building Surface Name
    ,                        !- Shading Control Name
    Frame-Divider_1,         !- Frame and Divider Name
    1,                       !- Multiplier
    10.432541315032,         !- Starting X Coordinate {m}
    0.679416966986256,       !- Starting Z Coordinate {m}
    0.774662321947641,       !- Length {m}
    1.3842325937005;         !- Height {m}

  Window,
    North 5,                 !- Name
    WINDOW SINGLE PANE,      !- Construction Name
    Z1 NORTH WALL BATTING,   !- Building Surface Name
    ,                        !- Shading Control Name
    Frame-Divider_1,         !- Frame and Divider Name
    1,                       !- Multiplier
    12.5660372661671,        !- Starting X Coordinate {m}
    0.679416966986256,       !- Starting Z Coordinate {m}
    0.774662321947641,       !- Length {m}
    1.3842325937005;         !- Height {m}

  Window,
    North 6,                 !- Name
    WINDOW SINGLE PANE,      !- Construction Name
    Z1 NORTH WALL BATTING,   !- Building Surface Name
    ,                        !- Shading Control Name
    Frame-Divider_1,         !- Frame and Divider Name
    1,                       !- Multiplier
    14.0899629455492,        !- Starting X Coordinate {m}
    0.679416966986256,       !- Starting Z Coordinate {m}
    0.774662321947641,       !- Length {m}
    1.3842325937005;         !- Height {m}

  WindowProperty:FrameAndDivider,
    Frame-Divider_1,         !- Name
    6.98466952333941E-02,    !- Frame Width {m}
    ,                        !- Frame Outside Projection {m}
    ,                        !- Frame Inside Projection {m}
    51.649480578971,         !- Frame Conductance {W/m2-K}
    1,                       !- Ratio of Frame-Edge Glass Conductance to Center-Of-Glass Conductance
    0.6,                     !- Frame Solar Absorptance
    0,                       !- Frame Visible Absorptance
    0.9,                     !- Frame Thermal Hemispherical Emissivity
    DividedLite,             !- Divider Type
    6.98466952333941E-02,    !- Divider Width {m}
    1,                       !- Number of Horizontal Dividers
    ,                        !- Number of Vertical Dividers
    ,                        !- Divider Outside Projection {m}
    ,                        !- Divider Inside Projection {m}
    51.649480578971,         !- Divider Conductance {W/m2-K}
    1,                       !- Ratio of Divider-Edge Glass Conductance to Center-Of-Glass Conductance
    0.6,                     !- Divider Solar Absorptance
    0,                       !- Divider Visible Absorptance
    0.9;                     !- Divider Thermal Hemispherical Emissivity

  InternalMass,
    INTERIOR WALLS AIR,      !- Name
    INTERIOR WALL AIR,       !- Construction Name
    ZONE ONE,                !- Zone Name
    171.222167776412;        !- Surface Area {m2}

  InternalMass,
    INTERIOR WALLS FRAMED,   !- Name
    INTERIOR WALL FRAMED,    !- Construction Name
    ZONE ONE,                !- Zone Name
    19.0246853084902;        !- Surface Area {m2}

                                        !- X,Y,Z  1 {m}

  FenestrationSurface:Detailed,
    SOUTH FRAMED 1,          !- Name
    Door,                    !- Surface Type
    EXTERIOR WALL (FRAMING), !- Construction Name
    Z1 SOUTH WALL BATTING,   !- Building Surface Name
    ,                        !- Outside Boundary Condition Object
    autocalculate,           !- View Factor to Ground
    ,                        !- Shading Control Name
    ,                        !- Frame and Divider Name
    ,                        !- Multiplier
    4,                       !- Number of Vertices
    2.59067365494966,0,2.438,  !- X,Y,Z ==> Vertex 1 {m}
    2.59067365494966,0.000000,0.01,  !- X,Y,Z ==> Vertex 2 {m}
    4.11459933433182,0.000000,0.01,  !- X,Y,Z ==> Vertex 3 {m}
    4.11459933433182,0.000000,2.438;  !- X,Y,Z ==> Vertex 4 {m}

                                        !- X,Y,Z  4 {m}

  Material:NoMass,
    ALUM FRAME,              !- Name
    VerySmooth,              !- Roughness
    0.019372120729438,       !- Thermal Resistance {m2-K/W}
    0.9,                     !- Thermal Absorptance
    0.6,                     !- Solar Absorptance
    0.6;                     !- Visible Absorptance

  Construction,
    ALUM WIN FRAME,          !- Name
    ALUM FRAME;              !- Outside Layer

                                        !- X,Y,Z  1 {m}
                                        !- X,Y,Z  2 {m}
                                        !- X,Y,Z  3 {m}

  FenestrationSurface:Detailed,
    EAST FRAMED 1,           !- Name
    Door,                    !- Surface Type
    EXTERIOR WALL (FRAMING), !- Construction Name
    Z1 EAST WALL BATTING,    !- Building Surface Name
    ,                        !- Outside Boundary Condition Object
    autocalculate,           !- View Factor to Ground
    ,                        !- Shading Control Name
    ,                        !- Frame and Divider Name
    ,                        !- Multiplier
    4,                       !- Number of Vertices
    17.3727527449566,0.152392567938216,2.438,  !- X,Y,Z ==> Vertex 1 {m}
    17.3727527449566,0.152392567938216,0.01,  !- X,Y,Z ==> Vertex 2 {m}
    17.3727527449566,0.914355407629293,0.01,  !- X,Y,Z ==> Vertex 3 {m}
    17.3727527449566,0.914355407629293,2.438;  !- X,Y,Z ==> Vertex 4 {m}

                                        !- X,Y,Z  4 {m}
                                        !- X,Y,Z  1 {m}
                                        !- X,Y,Z  2 {m}
                                        !- X,Y,Z  3 {m}

  FenestrationSurface:Detailed,
    EAST FRAMED 2,           !- Name
    Door,                    !- Surface Type
    EXTERIOR WALL (FRAMING), !- Construction Name
    Z1 EAST WALL BATTING,    !- Building Surface Name
    ,                        !- Outside Boundary Condition Object
    autocalculate,           !- View Factor to Ground
    ,                        !- Shading Control Name
    ,                        !- Frame and Divider Name
    ,                        !- Multiplier
    4,                       !- Number of Vertices
    17.3727527449566,7.01005812515791,2.438,  !- X,Y,Z ==> Vertex 1 {m}
    17.3727527449566,7.01005812515791,0.01,  !- X,Y,Z ==> Vertex 2 {m}
    17.3727527449566,7.87869576240574,0.01,  !- X,Y,Z ==> Vertex 3 {m}
    17.3727527449566,7.87869576240574,2.438;  !- X,Y,Z ==> Vertex 4 {m}

                                        !- X,Y,Z  4 {m}
                                        !- X,Y,Z  1 {m}

  FenestrationSurface:Detailed,
    WEST FRAMED 1,           !- Name
    Door,                    !- Surface Type
    EXTERIOR WALL (FRAMING), !- Construction Name
    Z1 WEST WALL BATTING,    !- Building Surface Name
    ,                        !- Outside Boundary Condition Object
    autocalculate,           !- View Factor to Ground
    ,                        !- Shading Control Name
    ,                        !- Frame and Divider Name
    ,                        !- Multiplier
    4,                       !- Number of Vertices
    0,1.06674797556751,2.438,  !- X,Y,Z ==> Vertex 1 {m}
    0,1.06674797556751,0.01,  !- X,Y,Z ==> Vertex 2 {m}
    0,0.457177703814647,0.01,  !- X,Y,Z ==> Vertex 3 {m}
    0,0.457177703814647,2.438;  !- X,Y,Z ==> Vertex 4 {m}

                                        !- X,Y,Z  4 {m}
                                        !- X,Y,Z  1 {m}

  FenestrationSurface:Detailed,
    WEST FRAMED 2,           !- Name
    Door,                    !- Surface Type
    EXTERIOR WALL (FRAMING), !- Construction Name
    Z1 WEST WALL BATTING,    !- Building Surface Name
    ,                        !- Outside Boundary Condition Object
    autocalculate,           !- View Factor to Ground
    ,                        !- Shading Control Name
    ,                        !- Frame and Divider Name
    ,                        !- Multiplier
    4,                       !- Number of Vertices
    0,8.07680610072542,2.438,  !- X,Y,Z ==> Vertex 1 {m}
    0,8.07680610072542,0.01,  !- X,Y,Z ==> Vertex 2 {m}
    0,7.05577589553938,0.01,  !- X,Y,Z ==> Vertex 3 {m}
    0,7.05577589553938,2.438;  !- X,Y,Z ==> Vertex 4 {m}

                                        !- X,Y,Z  4 {m}
                                        !- X,Y,Z  1 {m}
                                        !- X,Y,Z  2 {m}
                                        !- X,Y,Z  3 {m}

  FenestrationSurface:Detailed,
    NORTH FRAMED 2,          !- Name
    Door,                    !- Surface Type
    EXTERIOR WALL (FRAMING), !- Construction Name
    Z1 NORTH WALL BATTING,   !- Building Surface Name
    ,                        !- Outside Boundary Condition Object
    autocalculate,           !- View Factor to Ground
    ,                        !- Shading Control Name
    ,                        !- Frame and Divider Name
    ,                        !- Multiplier
    4,                       !- Number of Vertices
    2.07634873815819,8.22919866866364,2.438,  !- X,Y,Z ==> Vertex 1 {m}
    2.07634873815819,8.22919866866364,0.01,  !- X,Y,Z ==> Vertex 2 {m}
    0.304785135876431,8.22919866866364,0.01,  !- X,Y,Z ==> Vertex 3 {m}
    0.304785135876431,8.22919866866364,2.438;  !- X,Y,Z ==> Vertex 4 {m}

                                        !- X,Y,Z  4 {m}
                                        !- X,Y,Z  1 {m}
                                        !- X,Y,Z  2 {m}
                                        !- X,Y,Z  3 {m}

  FenestrationSurface:Detailed,
    NORTH FRAMED 1,          !- Name
    Door,                    !- Surface Type
    EXTERIOR WALL (FRAMING), !- Construction Name
    Z1 NORTH WALL BATTING,   !- Building Surface Name
    ,                        !- Outside Boundary Condition Object
    autocalculate,           !- View Factor to Ground
    ,                        !- Shading Control Name
    ,                        !- Frame and Divider Name
    ,                        !- Multiplier
    4,                       !- Number of Vertices
    14.7820790900069,8.22919866866364,2.438,  !- X,Y,Z ==> Vertex 1 {m}
    14.7820790900069,8.22919866866364,0.01,  !- X,Y,Z ==> Vertex 2 {m}
    13.2581534106247,8.22919866866364,0.01,  !- X,Y,Z ==> Vertex 3 {m}
    13.2581534106247,8.22919866866364,2.438;  !- X,Y,Z ==> Vertex 4 {m}

                                        !- X,Y,Z  4 {m}

  Construction,
    WINDOW SINGLE PANE,      !- Name
    SINGLE PANE GLASS;       !- Outside Layer

                                        !- X,Y,Z  1 {m}

  FenestrationSurface:Detailed,
    SOUTH FRAMED 2,          !- Name
    Door,                    !- Surface Type
    EXTERIOR WALL (FRAMING), !- Construction Name
    Z1 SOUTH WALL BATTING,   !- Building Surface Name
    ,                        !- Outside Boundary Condition Object
    autocalculate,           !- View Factor to Ground
    ,                        !- Shading Control Name
    ,                        !- Frame and Divider Name
    ,                        !- Multiplier
    4,                       !- Number of Vertices
    15.2392567938216,0.000000,2.438,  !- X,Y,Z ==> Vertex 1 {m}
    15.2392567938216,0.000000,0.01,  !- X,Y,Z ==> Vertex 2 {m}
    17.0108203961033,0,0.01,  !- X,Y,Z ==> Vertex 3 {m}
    17.0108203961033,0.000000,2.438;  !- X,Y,Z ==> Vertex 4 {m}

                                        !- X,Y,Z  4 {m}

  WindowMaterial:Glazing,
    SINGLE PANE GLASS,       !- Name
    SpectralAverage,         !- Optical Data Type
    ,                        !- Window Glass Spectral Data Set Name
    2.99720607572673E-03,    !- Thickness {m}
    0.837,                   !- Solar Transmittance at Normal Incidence
    0.075,                   !- Front Side Solar Reflectance at Normal Incidence
    0.075,                   !- Back Side Solar Reflectance at Normal Incidence
    0.837,                   !- Visible Transmittance at Normal Incidence
    0.075,                   !- Front Side Visible Reflectance at Normal Incidence
    0.075,                   !- Back Side Visible Reflectance at Normal Incidence
    0.0,                     !- Infrared Transmittance at Normal Incidence
    0.84,                    !- Front Side Infrared Hemispherical Emissivity
    0.84,                    !- Back Side Infrared Hemispherical Emissivity
    0.899808027803211;       !- Conductivity {W/m-K}

  Construction,
    INTERIOR WALL AIR,       !- Name
    PLASTERBOARD,            !- Outside Layer
    PLASTERBOARD;            !- Layer 2

  Site:GroundReflectance,0.2,0.2,0.2,0.2,0.2,0.2,0.2,0.2,0.2,0.2,0.2,0.2;

  Output:Variable,*,Site Diffuse Solar Radiation Rate per Area,Hourly;

  Output:Variable,*,Site Direct Solar Radiation Rate per Area,Hourly;

  Output:Variable,*,Site Ground Reflected Solar Radiation Rate per Area,Hourly;

  Output:Variable,*,Site Sky Diffuse Solar Radiation Luminous Efficacy,Hourly;

  Output:Variable,*,Site Beam Solar Radiation Luminous Efficacy,Hourly;

  Output:Variable,*,Site Exterior Horizontal Sky Illuminance,Hourly;

  Output:Variable,*,Site Exterior Beam Normal Illuminance,Hourly;

  Output:Variable,*,Site Exterior Horizontal Beam Illuminance,Hourly;

  Construction,
    DOOR,                    !- Name
    DOOR;                    !- Outside Layer

  Material,
    DOOR,                    !- Name
    Rough,                   !- Roughness
    4.44500901061168E-02,    !- Thickness {m}
    0.115792603577881,       !- Conductivity {W/m-K}
    512.590493468479,        !- Density {kg/m3}
    1380.7200104479,         !- Specific Heat {J/kg-K}
    0.9,                     !- Thermal Absorptance
    0.6,                     !- Solar Absorptance
    0.6;                     !- Visible Absorptance

                                        !- X,Y,Z  1 {m}
                                        !- X,Y,Z  2 {m}
                                        !- X,Y,Z  3 {m}

  BuildingSurface:Detailed,
    Z1 FlOOR FRAMED,         !- Name
    Floor,                   !- Surface Type
    FLOOR OVCS JOISTS,       !- Construction Name
    ZONE ONE,                !- Zone Name
    Outdoors,                !- Outside Boundary Condition
    ,                        !- Outside Boundary Condition Object
    NoSun,                   !- Sun Exposure
    NoWind,                  !- Wind Exposure
    ,                        !- View Factor to Ground
    4,                       !- Number of Vertices
    0.000000,8.22919866866364,0.000000,  !- X,Y,Z ==> Vertex 1 {m}
    1.73727527449566,8.22919866866364,0.000000,  !- X,Y,Z ==> Vertex 2 {m}
    1.73727527449566,0.000000,0.000000,  !- X,Y,Z ==> Vertex 3 {m}
    0.000000,0.000000,0.000000;  !- X,Y,Z ==> Vertex 4 {m}

                                        !- X,Y,Z  1 {m}
                                        !- X,Y,Z  3 {m}

  BuildingSurface:Detailed,
    Z1 SOUTH WALL BATTING,   !- Name
    Wall,                    !- Surface Type
    EXTERIOR WALL (BATTING), !- Construction Name
    ZONE ONE,                !- Zone Name
    Outdoors,                !- Outside Boundary Condition
    ,                        !- Outside Boundary Condition Object
    SunExposed,              !- Sun Exposure
    WindExposed,             !- Wind Exposure
    ,                        !- View Factor to Ground
    4,                       !- Number of Vertices
    0.000000,0.000000,2.43828108701145,  !- X,Y,Z ==> Vertex 1 {m}
    0.000000,0.000000,0.000000,  !- X,Y,Z ==> Vertex 2 {m}
    17.3727527449566,0.000000,0.000000,  !- X,Y,Z ==> Vertex 3 {m}
    17.3727527449566,0.000000,2.43828108701145;  !- X,Y,Z ==> Vertex 4 {m}

                                        !- X,Y,Z  4 {m}
                                        !- X,Y,Z  1 {m}
                                        !- X,Y,Z  2 {m}
                                        !- X,Y,Z  3 {m}

  BuildingSurface:Detailed,
    Z1 CEILING FRAMED,       !- Name
    Ceiling,                 !- Surface Type
    CEILING JOISTS,          !- Construction Name
    ZONE ONE,                !- Zone Name
    Surface,                 !- Outside Boundary Condition
    Z2 FLOOR FRAMED,         !- Outside Boundary Condition Object
    NoSun,                   !- Sun Exposure
    NoWind,                  !- Wind Exposure
    0.0,                     !- View Factor to Ground
    4,                       !- Number of Vertices
    0.000000,0.000000,2.43828108701145,  !- X,Y,Z ==> Vertex 1 {m}
    1.73727527449566,0.000000,2.43828108701145,  !- X,Y,Z ==> Vertex 2 {m}
    1.73727527449566,8.22919866866364,2.43828108701145,  !- X,Y,Z ==> Vertex 3 {m}
    0.000000,8.22919866866364,2.43828108701145;  !- X,Y,Z ==> Vertex 4 {m}

                                        !- X,Y,Z  4 {m}
                                        !- X,Y,Z  1 {m}
                                        !- X,Y,Z  2 {m}

  BuildingSurface:Detailed,
    Z1 WEST WALL BATTING,    !- Name
    Wall,                    !- Surface Type
    EXTERIOR WALL (BATTING), !- Construction Name
    ZONE ONE,                !- Zone Name
    Outdoors,                !- Outside Boundary Condition
    ,                        !- Outside Boundary Condition Object
    SunExposed,              !- Sun Exposure
    WindExposed,             !- Wind Exposure
    ,                        !- View Factor to Ground
    4,                       !- Number of Vertices
    0.000000,8.22919866866364,2.43828108701145,  !- X,Y,Z ==> Vertex 1 {m}
    0.000000,8.22919866866364,0.000000,  !- X,Y,Z ==> Vertex 2 {m}
    0.000000,0.000000,0.000000,  !- X,Y,Z ==> Vertex 3 {m}
    0.000000,0.000000,2.43828108701145;  !- X,Y,Z ==> Vertex 4 {m}

                                        !- X,Y,Z  4 {m}
                                        !- X,Y,Z  1 {m}
                                        !- X,Y,Z  2 {m}
                                        !- X,Y,Z  3 {m}

  BuildingSurface:Detailed,
    Z1 EAST WALL BATTING,    !- Name
    Wall,                    !- Surface Type
    EXTERIOR WALL (BATTING), !- Construction Name
    ZONE ONE,                !- Zone Name
    Outdoors,                !- Outside Boundary Condition
    ,                        !- Outside Boundary Condition Object
    SunExposed,              !- Sun Exposure
    WindExposed,             !- Wind Exposure
    ,                        !- View Factor to Ground
    4,                       !- Number of Vertices
    17.3727527449566,0.000000,2.43828108701145,  !- X,Y,Z ==> Vertex 1 {m}
    17.3727527449566,0.000000,0.000000,  !- X,Y,Z ==> Vertex 2 {m}
    17.3727527449566,8.22919866866364,0.000000,  !- X,Y,Z ==> Vertex 3 {m}
    17.3727527449566,8.22919866866364,2.43828108701145;  !- X,Y,Z ==> Vertex 4 {m}

                                        !- X,Y,Z  4 {m}
                                        !- X,Y,Z  1 {m}
                                        !- X,Y,Z  2 {m}
                                        !- X,Y,Z  3 {m}

  BuildingSurface:Detailed,
    Z1 NORTH WALL BATTING,   !- Name
    Wall,                    !- Surface Type
    EXTERIOR WALL (BATTING), !- Construction Name
    ZONE ONE,                !- Zone Name
    Outdoors,                !- Outside Boundary Condition
    ,                        !- Outside Boundary Condition Object
    SunExposed,              !- Sun Exposure
    WindExposed,             !- Wind Exposure
    ,                        !- View Factor to Ground
    4,                       !- Number of Vertices
    17.3727527449566,8.22919866866364,2.43828108701145,  !- X,Y,Z ==> Vertex 1 {m}
    17.3727527449566,8.22919866866364,0.000000,  !- X,Y,Z ==> Vertex 2 {m}