!-Generator IDFEditor 1.44
!-Option OriginalOrderTop UseSpecialFormat ViewInIPunits
!-NOTE: All comments with '!-' are ignored by the IDFEditor and are generated automatically.
!-      Use '!' comments if they need to be retained when using the IDFEditor.

  ScheduleTypeLimits,
    Any Number;              !- Name

  Construction:FfactorGroundFloor,
    SlabConst,               !- Name
    0.383180194947105,       !- F-Factor {W/m-K}
    142.963821727375,        !- Area {m2}
    51.2039028272404;        !- PerimeterExposed {m}

  Construction:CfactorUndergroundWall,
    UGWall,                  !- Name
    0.348077524130488,       !- C-Factor {W/m2-K}
    2.00649198501531;        !- Height {m}

  Site:GroundTemperature:FCfactorMethod,6.58,4.96,4.61,5.1,7.54,10.16,12.57,14.24,14.63,13.68,11.6,9.05;

  Output:Variable,*,Site Deep Ground Temperature,Hourly;

  Construction,
    Base-Conc-WallToSoil,    !- Name
    SoilAtWall-4footDepth,   !- Outside Layer
    ConcreteWall;            !- Layer 2

  Construction,
    Base-Frame-Wall,         !- Name
    Hardwood Siding,         !- Outside Layer
    Fiberboard Sheathing,    !- Layer 2
    Rim Joist 2x8,           !- Layer 3
    FIBERGLASS BATT R11;     !- Layer 4

  Material,
    FIBERGLASS BATT R11,     !- Name
    Rough,                   !- Roughness
    8.89001802122336E-02,    !- Thickness {m}
    4.59277014191222E-02,    !- Conductivity {W/m-K}
    9.61107175253399,        !- Density {kg/m3}
    836.800006332062,        !- Specific Heat {J/kg-K}
    0.9,                     !- Thermal Absorptance
    0.6,                     !- Solar Absorptance
    0.6;                     !- Visible Absorptance

  Material,
    SoilAtWall-4footDepth,   !- Name
    Rough,                   !- Roughness
    1.68148340858568,        !- Thickness {m}
    1.38417584276972,        !- Conductivity {W/m-K}
    1505.73457456366,        !- Density {kg/m3}
    794.960006015459,        !- Specific Heat {J/kg-K}
    0.9,                     !- Thermal Absorptance
    0.7,                     !- Solar Absorptance
    0.7;                     !- Visible Absorptance

  Material,
    SoilBelowSlab,           !- Name
    Rough,                   !- Roughness
    2.99720607572673,        !- Thickness {m}
    0.425390013144146,       !- Conductivity {W/m-K}
    1505.73457456366,        !- Density {kg/m3}
    794.960006015459,        !- Specific Heat {J/kg-K}
    0.9,                     !- Thermal Absorptance
    0.7,                     !- Solar Absorptance
    0.7;                     !- Visible Absorptance

  Material,
    ConcreteWall,            !- Name
    Rough,                   !- Roughness
    0.152400308935258,       !- Thickness {m}
    1.80221165568662,        !- Conductivity {W/m-K}
    2242.5834089246,         !- Density {kg/m3}
    836.800006332062,        !- Specific Heat {J/kg-K}
    0.9,                     !- Thermal Absorptance
    0.7,                     !- Solar Absorptance
    0.7;                     !- Visible Absorptance

  Material,
    Rim Joist 2x8,           !- Name
    Rough,                   !- Roughness
    3.81000772338144E-02,    !- Thickness {m}
    0.11550420356897,        !- Conductivity {W/m-K}
    512.590493468479,        !- Density {kg/m3}
    1380.7200104479,         !- Specific Heat {J/kg-K}
    0.9,                     !- Thermal Absorptance
    0.7,                     !- Solar Absorptance
    0.7;                     !- Visible Absorptance

  Material,
    Fiberboard Sheathing,    !- Name
    Rough,                   !- Roughness
    1.27000257446048E-02,    !- Thickness {m}
    5.46518016886886E-02,    !- Conductivity {W/m-K}
    288.33215257602,         !- Density {kg/m3}
    1297.0400098147,         !- Specific Heat {J/kg-K}
    0.9,                     !- Thermal Absorptance
    0.7,                     !- Solar Absorptance
    0.7;                     !- Visible Absorptance

  Material,
    Hardwood Siding,         !- Name
    Rough,                   !- Roughness
    1.11760226552522E-02,    !- Thickness {m}
    9.46644189250404E-02,    !- Conductivity {W/m-K}
    640.738116835599,        !- Density {kg/m3}
    1171.52000886489,        !- Specific Heat {J/kg-K}
    0.9,                     !- Thermal Absorptance
    0.7,                     !- Solar Absorptance
    0.7;                     !- Visible Absorptance

  Construction,
    Base-Conc-WallToOutside, !- Name
    ConcreteWall;            !- Outside Layer

  Construction,
    Base-Conc-Floor,         !- Name
    SLAB;                    !- Outside Layer

  Material,
    SLAB,                    !- Name
    Rough,                   !- Roughness
    0.101600205956838,       !- Thickness {m}
    1.44200004455643E-02,    !- Conductivity {W/m-K}
    2242.5834089246,         !- Density {kg/m3}
    836.800006332062,        !- Specific Heat {J/kg-K}
    0.9,                     !- Thermal Absorptance
    0.7,                     !- Solar Absorptance
    0.7;                     !- Visible Absorptance

                                        !- X,Y,Z  1 {m}
                                        !- X,Y,Z  3 {m}

  BuildingSurface:Detailed,
    Base-Upper-Floor,        !- Name
    Floor,                   !- Surface Type
    IRTSurface,              !- Construction Name
    Zone-Basement-Upper,     !- Zone Name
    Surface,                 !- Outside Boundary Condition
    Base-Lower-Ceil,         !- Outside Boundary Condition Object
    NoSun,                   !- Sun Exposure
    NoWind,                  !- Wind Exposure
    autocalculate,           !- View Factor to Ground
    4,                       !- Number of Vertices
    17.3727527449566,0,-0.431758623482552,  !- X,Y,Z ==> Vertex 1 {m}
    0,0,-0.431758623482552,  !- X,Y,Z ==> Vertex 2 {m}
    0,8.22919866866364,-0.431758623482552,  !- X,Y,Z ==> Vertex 3 {m}
    17.3727527449566,8.22919866866364,-0.431758623482552;  !- X,Y,Z ==> Vertex 4 {m}

                                        !- X,Y,Z  4 {m}

  Material:InfraredTransparent,
    IRTMateriall;            !- Name

  Construction,
    IRTSurface,              !- Name
    IRTMateriall;            !- Outside Layer

                                        !- X,Y,Z  1 {m}
                                        !- X,Y,Z  2 {m}

  BuildingSurface:Detailed,
    Base-Lower-Ceil,         !- Name
    Ceiling,                 !- Surface Type
    IRTSurface,              !- Construction Name
    Zone-Basement-Lower,     !- Zone Name
    Surface,                 !- Outside Boundary Condition
    Base-Upper-Floor,        !- Outside Boundary Condition Object
    NoSun,                   !- Sun Exposure
    NoWind,                  !- Wind Exposure
    autocalculate,           !- View Factor to Ground
    4,                       !- Number of Vertices
    17.3727527449566,8.22919866866364,-0.431758623482552,  !- X,Y,Z ==> Vertex 1 {m}
    0,8.22919866866364,-0.431758623482552,  !- X,Y,Z ==> Vertex 2 {m}
    0,0,-0.431758623482552,  !- X,Y,Z ==> Vertex 3 {m}
    17.3727527449566,0,-0.431758623482552;  !- X,Y,Z ==> Vertex 4 {m}

                                        !- X,Y,Z  4 {m}

  Zone,
    Zone-Basement-Lower,     !- Name
    0,                       !- Direction of Relative North {deg}
    0,                       !- X Origin {m}
    0,                       !- Y Origin {m}
    0,                       !- Z Origin {m}
    1,                       !- Type
    1,                       !- Multiplier
    autocalculate,           !- Ceiling Height {m}
    autocalculate,           !- Volume {m3}
    autocalculate,           !- Floor Area {m2}
    ,                        !- Zone Inside Convection Algorithm
    ,                        !- Zone Outside Convection Algorithm
    Yes;                     !- Part of Total Floor Area

  Zone,
    Zone-Basement-Upper,     !- Name
    0,                       !- Direction of Relative North {deg}
    0,                       !- X Origin {m}
    0,                       !- Y Origin {m}
    0,                       !- Z Origin {m}
    1,                       !- Type
    1,                       !- Multiplier
    autocalculate,           !- Ceiling Height {m}
    autocalculate,           !- Volume {m3}
    autocalculate,           !- Floor Area {m2}
    ,                        !- Zone Inside Convection Algorithm
    ,                        !- Zone Outside Convection Algorithm
    No;                      !- Part of Total Floor Area

                                        !- X,Y,Z  3 {m}

  BuildingSurface:Detailed,
    Base-Lower-South,        !- Name
    Wall,                    !- Surface Type
    UGWall,                  !- Construction Name
    Zone-Basement-Lower,     !- Zone Name
    GroundFCfactorMethod,    !- Outside Boundary Condition
    ,                        !- Outside Boundary Condition Object
    NoSun,                   !- Sun Exposure
    NoWind,                  !- Wind Exposure
    autocalculate,           !- View Factor to Ground
    4,                       !- Number of Vertices
    0,0,-0.431758623482552,  !- X,Y,Z ==> Vertex 1 {m}
    0,0,-2.43828108701145,  !- X,Y,Z ==> Vertex 2 {m}
    17.3727527449566,0,-2.43828108701145,  !- X,Y,Z ==> Vertex 3 {m}
    17.3727527449566,0,-0.431758623482552;  !- X,Y,Z ==> Vertex 4 {m}

                                        !- X,Y,Z  4 {m}
                                        !- X,Y,Z  1 {m}
                                        !- X,Y,Z  2 {m}
                                        !- X,Y,Z  3 {m}

  BuildingSurface:Detailed,
    Base-Lower-East,         !- Name
    Wall,                    !- Surface Type
    UGWall,                  !- Construction Name
    Zone-Basement-Lower,     !- Zone Name
    GroundFCfactorMethod,    !- Outside Boundary Condition
    ,                        !- Outside Boundary Condition Object
    NoSun,                   !- Sun Exposure
    NoWind,                  !- Wind Exposure
    autocalculate,           !- View Factor to Ground
    4,                       !- Number of Vertices
    17.3727527449566,0,-0.431758623482552,  !- X,Y,Z ==> Vertex 1 {m}
    17.3727527449566,0,-2.43828108701145,  !- X,Y,Z ==> Vertex 2 {m}
    17.3727527449566,8.22919866866364,-2.43828108701145,  !- X,Y,Z ==> Vertex 3 {m}
    17.3727527449566,8.22919866866364,-0.431758623482552;  !- X,Y,Z ==> Vertex 4 {m}

                                        !- X,Y,Z  4 {m}
                                        !- X,Y,Z  1 {m}
                                        !- X,Y,Z  2 {m}
                                        !- X,Y,Z  3 {m}

  BuildingSurface:Detailed,
    Base-Lower-North,        !- Name
    Wall,                    !- Surface Type
    UGWall,                  !- Construction Name
    Zone-Basement-Lower,     !- Zone Name
    GroundFCfactorMethod,    !- Outside Boundary Condition
    ,                        !- Outside Boundary Condition Object
    NoSun,                   !- Sun Exposure
    NoWind,                  !- Wind Exposure
    autocalculate,           !- View Factor to Ground
    4,                       !- Number of Vertices
    17.3727527449566,8.22919866866364,-0.431758623482552,  !- X,Y,Z ==> Vertex 1 {m}
    17.3727527449566,8.22919866866364,-2.43828108701145,  !- X,Y,Z ==> Vertex 2 {m}
    0,8.22919866866364,-2.43828108701145,  !- X,Y,Z ==> Vertex 3 {m}
    0,8.22919866866364,-0.431758623482552;  !- X,Y,Z ==> Vertex 4 {m}

                                        !- X,Y,Z  4 {m}
                                        !- X,Y,Z  1 {m}
                                        !- X,Y,Z  2 {m}

  BuildingSurface:Detailed,
    Base-Lower-West,         !- Name
    Wall,                    !- Surface Type
    UGWall,                  !- Construction Name
    Zone-Basement-Lower,     !- Zone Name
    GroundFCfactorMethod,    !- Outside Boundary Condition
    ZONE ONE,                !- Outside Boundary Condition Object
    NoSun,                   !- Sun Exposure
    NoWind,                  !- Wind Exposure
    autocalculate,           !- View Factor to Ground
    4,                       !- Number of Vertices
    0,8.22919866866364,-0.431758623482552,  !- X,Y,Z ==> Vertex 1 {m}
    0,8.22919866866364,-2.43828108701145,  !- X,Y,Z ==> Vertex 2 {m}
    0,0,-2.43828108701145,  !- X,Y,Z ==> Vertex 3 {m}
    0,0,-0.431758623482552;  !- X,Y,Z ==> Vertex 4 {m}

                                        !- X,Y,Z  3 {m}

  BuildingSurface:Detailed,
    Base-Upper-South-Conc,   !- Name
    Wall,                    !- Surface Type
    Base-Conc-WallToOutside, !- Construction Name
    Zone-Basement-Upper,     !- Zone Name
    Outdoors,                !- Outside Boundary Condition
    ,                        !- Outside Boundary Condition Object
    SunExposed,              !- Sun Exposure
    WindExposed,             !- Wind Exposure
    autocalculate,           !- View Factor to Ground
    4,                       !- Number of Vertices
    0,0,-0.228588851907323,  !- X,Y,Z ==> Vertex 1 {m}
    0,0,-0.431758623482552,  !- X,Y,Z ==> Vertex 2 {m}
    17.3727527449566,0,-0.431758623482552,  !- X,Y,Z ==> Vertex 3 {m}
    17.3727527449566,0,-0.228588851907323;  !- X,Y,Z ==> Vertex 4 {m}

                                        !- X,Y,Z  4 {m}
                                        !- X,Y,Z  1 {m}
                                        !- X,Y,Z  2 {m}
                                        !- X,Y,Z  3 {m}

  BuildingSurface:Detailed,
    Base-Upper-East-Conc,    !- Name
    Wall,                    !- Surface Type
    Base-Conc-WallToOutside, !- Construction Name
    Zone-Basement-Upper,     !- Zone Name
    Outdoors,                !- Outside Boundary Condition
    ,                        !- Outside Boundary Condition Object
    SunExposed,              !- Sun Exposure
    WindExposed,             !- Wind Exposure
    autocalculate,           !- View Factor to Ground
    4,                       !- Number of Vertices
    17.3727527449566,0,-0.228588851907323,  !- X,Y,Z ==> Vertex 1 {m}
    17.3727527449566,0,-0.431758623482552,  !- X,Y,Z ==> Vertex 2 {m}
    17.3727527449566,8.22919866866364,-0.431758623482552,  !- X,Y,Z ==> Vertex 3 {m}
    17.3727527449566,8.22919866866364,-0.228588851907323;  !- X,Y,Z ==> Vertex 4 {m}

                                        !- X,Y,Z  4 {m}
                                        !- X,Y,Z  1 {m}
                                        !- X,Y,Z  2 {m}
                                        !- X,Y,Z  3 {m}

  BuildingSurface:Detailed,
    Base-Upper-North-Conc,   !- Name
    Wall,                    !- Surface Type
    Base-Conc-WallToOutside, !- Construction Name
    Zone-Basement-Upper,     !- Zone Name
    Outdoors,                !- Outside Boundary Condition
    ,                        !- Outside Boundary Condition Object
    SunExposed,              !- Sun Exposure
    WindExposed,             !- Wind Exposure
    autocalculate,           !- View Factor to Ground
    4,                       !- Number of Vertices
    17.3727527449566,8.22919866866364,-0.228588851907323,  !- X,Y,Z ==> Vertex 1 {m}
    17.3727527449566,8.22919866866364,-0.431758623482552,  !- X,Y,Z ==> Vertex 2 {m}
    0,8.22919866866364,-0.431758623482552,  !- X,Y,Z ==> Vertex 3 {m}
    0,8.22919866866364,-0.228588851907323;  !- X,Y,Z ==> Vertex 4 {m}

                                        !- X,Y,Z  4 {m}
                                        !- X,Y,Z  1 {m}
                                        !- X,Y,Z  2 {m}

  BuildingSurface:Detailed,
    Base-Upper-West-Conc,    !- Name
    Wall,                    !- Surface Type
    Base-Conc-WallToOutside, !- Construction Name
    Zone-Basement-Upper,     !- Zone Name
    Outdoors,                !- Outside Boundary Condition
    ,                        !- Outside Boundary Condition Object
    SunExposed,              !- Sun Exposure
    WindExposed,             !- Wind Exposure
    autocalculate,           !- View Factor to Ground
    4,                       !- Number of Vertices
    0,8.22919866866364,-0.228588851907323,  !- X,Y,Z ==> Vertex 1 {m}
    0,8.22919866866364,-0.431758623482552,  !- X,Y,Z ==> Vertex 2 {m}
    0,0,-0.431758623482552,  !- X,Y,Z ==> Vertex 3 {m}
    0,0,-0.228588851907323;  !- X,Y,Z ==> Vertex 4 {m}

                                        !- X,Y,Z  3 {m}

  BuildingSurface:Detailed,
    Baes-Upper-South-Frame,  !- Name
    Wall,                    !- Surface Type
    Base-Frame-Wall,         !- Construction Name
    Zone-Basement-Upper,     !- Zone Name
    Outdoors,                !- Outside Boundary Condition
    ,                        !- Outside Boundary Condition Object
    SunExposed,              !- Sun Exposure
    WindExposed,             !- Wind Exposure
    autocalculate,           !- View Factor to Ground
    4,                       !- Number of Vertices
    0,0,0,  !- X,Y,Z ==> Vertex 1 {m}
    0,0,-0.228588851907323,  !- X,Y,Z ==> Vertex 2 {m}
    17.3727527449566,0,-0.228588851907323,  !- X,Y,Z ==> Vertex 3 {m}
    17.3727527449566,0,0;  !- X,Y,Z ==> Vertex 4 {m}

                                        !- X,Y,Z  2 {m}
                                        !- X,Y,Z  3 {m}

  BuildingSurface:Detailed,
    Base-Upper-East-Frame,   !- Name
    Wall,                    !- Surface Type
    Base-Frame-Wall,         !- Construction Name
    Zone-Basement-Upper,     !- Zone Name
    Outdoors,                !- Outside Boundary Condition
    ,                        !- Outside Boundary Condition Object
    SunExposed,              !- Sun Exposure
    WindExposed,             !- Wind Exposure
    autocalculate,           !- View Factor to Ground
    4,                       !- Number of Vertices
    17.3727527449566,0,0,  !- X,Y,Z ==> Vertex 1 {m}
    17.3727527449566,0,-0.228588851907323,  !- X,Y,Z ==> Vertex 2 {m}
    17.3727527449566,8.22919866866364,-0.228588851907323,  !- X,Y,Z ==> Vertex 3 {m}
    17.3727527449566,8.22919866866364,0;  !- X,Y,Z ==> Vertex 4 {m}

                                        !- X,Y,Z  4 {m}
                                        !- X,Y,Z  1 {m}
                                        !- X,Y,Z  2 {m}
                                        !- X,Y,Z  3 {m}

  BuildingSurface:Detailed,
    Base-Upper-North-Frame,  !- Name
    Wall,                    !- Surface Type
    Base-Frame-Wall,         !- Construction Name
    Zone-Basement-Upper,     !- Zone Name
    Outdoors,                !- Outside Boundary Condition
    ,                        !- Outside Boundary Condition Object
    SunExposed,              !- Sun Exposure
    WindExposed,             !- Wind Exposure
    autocalculate,           !- View Factor to Ground
    4,                       !- Number of Vertices
    17.3727527449566,8.22919866866364,0,  !- X,Y,Z ==> Vertex 1 {m}
    17.3727527449566,8.22919866866364,-0.228588851907323,  !- X,Y,Z ==> Vertex 2 {m}
    0,8.22919866866364,-0.228588851907323,  !- X,Y,Z ==> Vertex 3 {m}
    0,8.22919866866364,0;  !- X,Y,Z ==> Vertex 4 {m}

                                        !- X,Y,Z  2 {m}

  BuildingSurface:Detailed,
    Base-Upper-West-Frame,   !- Name
    Wall,                    !- Surface Type
    Base-Frame-Wall,         !- Construction Name
    Zone-Basement-Upper,     !- Zone Name
    Outdoors,                !- Outside Boundary Condition
    ,                        !- Outside Boundary Condition Object
    SunExposed,              !- Sun Exposure
    WindExposed,             !- Wind Exposure
    autocalculate,           !- View Factor to Ground
    4,                       !- Number of Vertices
    0,8.22919866866364,0,  !- X,Y,Z ==> Vertex 1 {m}
    0,8.22919866866364,-0.228588851907323,  !- X,Y,Z ==> Vertex 2 {m}
    0,0,-0.228588851907323,  !- X,Y,Z ==> Vertex 3 {m}
    0,0,0;  !- X,Y,Z ==> Vertex 4 {m}

                                        !- X,Y,Z  1 {m}
                                        !- X,Y,Z  2 {m}
                                        !- X,Y,Z  3 {m}

  BuildingSurface:Detailed,
    Base-Lower-Floor,        !- Name
    Floor,                   !- Surface Type
    SlabConst,               !- Construction Name
    Zone-Basement-Lower,     !- Zone Name
    GroundFCfactormethod,    !- Outside Boundary Condition
    ,                        !- Outside Boundary Condition Object
    NoSun,                   !- Sun Exposure
    NoWind,                  !- Wind Exposure
    autocalculate,           !- View Factor to Ground
    4,                       !- Number of Vertices
    0,8.22919866866364,-2.43828108701145,  !- X,Y,Z ==> Vertex 1 {m}
    17.3727527449566,8.22919866866364,-2.43828108701145,  !- X,Y,Z ==> Vertex 2 {m}
    17.3727527449566,0,-2.43828108701145,  !- X,Y,Z ==> Vertex 3 {m}
    0,0,-2.43828108701145;  !- X,Y,Z ==> Vertex 4 {m}

  InternalMass,
    INTERIOR WALLS AIR,      !- Name
    INTERIOR WALL AIR,       !- Construction Name
    ZONE ONE,                !- Zone Name
    171.222167776412;        !- Surface Area {m2}

  InternalMass,
    INTERIOR WALLS FRAMED,   !- Name
    INTERIOR WALL FRAMED,    !- Construction Name
    ZONE ONE,                !- Zone Name
    19.0246853084902;        !- Surface Area {m2}

                                        !- X,Y,Z  1 {m}
                                        !- X,Y,Z  2 {m}
                                        !- X,Y,Z  3 {m}

  FenestrationSurface:Detailed,
    SOUTH FRAMED 1,          !- Name
    Door,                    !- Surface Type
    EXTERIOR WALL (FRAMING), !- Construction Name
    Z1 SOUTH WALL BATTING,   !- Building Surface Name
    ,                        !- Outside Boundary Condition Object
    autocalculate,           !- View Factor to Ground
    ,                        !- Shading Control Name
    ,                        !- Frame and Divider Name
    ,                        !- Multiplier
    4,                       !- Number of Vertices
    0.609570271752862,0.000000,1.82871081525859,  !- X,Y,Z ==> Vertex 1 {m}
    0.609570271752862,0.000000,0.609570271752862,  !- X,Y,Z ==> Vertex 2 {m}
    3.90429759057708,0.000000,0.609570271752862,  !- X,Y,Z ==> Vertex 3 {m}
    3.90429759057708,0.000000,1.82871081525859;  !- X,Y,Z ==> Vertex 4 {m}

                                        !- X,Y,Z  4 {m}

  Material:NoMass,
    ALUM FRAME,              !- Name
    VerySmooth,              !- Roughness
    0.019372120729438,       !- Thermal Resistance {m2-K/W}
    0.9,                     !- Thermal Absorptance
    0.6,                     !- Solar Absorptance
    0.6;                     !- Visible Absorptance

  Construction,
    ALUM WIN FRAME,          !- Name
    ALUM FRAME;              !- Outside Layer

                                        !- X,Y,Z  1 {m}
                                        !- X,Y,Z  2 {m}
                                        !- X,Y,Z  3 {m}

  FenestrationSurface:Detailed,
    EAST FRAMED 1,           !- Name
    Door,                    !- Surface Type
    EXTERIOR WALL (FRAMING), !- Construction Name
    Z1 EAST WALL BATTING,    !- Building Surface Name
    ,                        !- Outside Boundary Condition Object
    autocalculate,           !- View Factor to Ground
    ,                        !- Shading Control Name
    ,                        !- Frame and Divider Name
    ,                        !- Multiplier
    4,                       !- Number of Vertices
    17.3727527449566,0.609570271752862,0.609570271752862,  !- X,Y,Z ==> Vertex 1 {m}
    17.3727527449566,2.24017074869177,0.609570271752862,  !- X,Y,Z ==> Vertex 2 {m}
    17.3727527449566,2.24017074869177,1.82871081525859,  !- X,Y,Z ==> Vertex 3 {m}
    17.3727527449566,0.609570271752862,1.82871081525859;  !- X,Y,Z ==> Vertex 4 {m}

                                        !- X,Y,Z  4 {m}
                                        !- X,Y,Z  1 {m}
                                        !- X,Y,Z  2 {m}
                                        !- X,Y,Z  3 {m}

  FenestrationSurface:Detailed,
    EAST FRAMED 2,           !- Name
    Door,                    !- Surface Type
    EXTERIOR WALL (FRAMING), !- Construction Name
    Z1 EAST WALL BATTING,    !- Building Surface Name
    ,                        !- Outside Boundary Condition Object
    autocalculate,           !- View Factor to Ground
    ,                        !- Shading Control Name
    ,                        !- Frame and Divider Name
    ,                        !- Multiplier
    4,                       !- Number of Vertices
    17.3727527449566,6.09570271752862,0.609570271752862,  !- X,Y,Z ==> Vertex 1 {m}
    17.3727527449566,7.72630319446753,0.609570271752862,  !- X,Y,Z ==> Vertex 2 {m}
    17.3727527449566,7.72630319446753,1.82871081525859,  !- X,Y,Z ==> Vertex 3 {m}
    17.3727527449566,6.09570271752862,1.82871081525859;  !- X,Y,Z ==> Vertex 4 {m}

                                        !- X,Y,Z  4 {m}
                                        !- X,Y,Z  1 {m}
                                        !- X,Y,Z  2 {m}
                                        !- X,Y,Z  3 {m}

  FenestrationSurface:Detailed,
    EAST ALUM FRAME,         !- Name
    Door,                    !- Surface Type
    ALUM WIN FRAME,          !- Construction Name
    Z1 EAST WALL BATTING,    !- Building Surface Name
    ,                        !- Outside Boundary Condition Object
    autocalculate,           !- View Factor to Ground
    ,                        !- Shading Control Name
    ,                        !- Frame and Divider Name
    ,                        !- Multiplier
    4,                       !- Number of Vertices
    17.3727527449566,5.18134730989933,0.304785135876431,  !- X,Y,Z ==> Vertex 1 {m}
    17.3727527449566,5.79609892896209,0.304785135876431,  !- X,Y,Z ==> Vertex 2 {m}
    17.3727527449566,5.79609892896209,2.13349595113502,  !- X,Y,Z ==> Vertex 3 {m}
    17.3727527449566,5.18134730989933,2.13349595113502;  !- X,Y,Z ==> Vertex 4 {m}

                                        !- X,Y,Z  4 {m}
                                        !- X,Y,Z  1 {m}
                                        !- X,Y,Z  2 {m}
                                        !- X,Y,Z  3 {m}

  FenestrationSurface:Detailed,
    EAST WINDOW,             !- Name
    Window,                  !- Surface Type
    WINDOW SINGLE PANE,      !- Construction Name
    Z1 EAST WALL BATTING,    !- Building Surface Name
    ,                        !- Outside Boundary Condition Object
    autocalculate,           !- View Factor to Ground
    ,                        !- Shading Control Name
    ,                        !- Frame and Divider Name
    ,                        !- Multiplier
    4,                       !- Number of Vertices
    17.3727527449566,3.04785135876431,0.304785135876431,  !- X,Y,Z ==> Vertex 1 {m}
    17.3727527449566,4.71898825877478,0.304785135876431,  !- X,Y,Z ==> Vertex 2 {m}
    17.3727527449566,4.71898825877478,2.13349595113502,  !- X,Y,Z ==> Vertex 3 {m}
    17.3727527449566,3.04785135876431,2.13349595113502;  !- X,Y,Z ==> Vertex 4 {m}

                                        !- X,Y,Z  4 {m}
                                        !- X,Y,Z  1 {m}
                                        !- X,Y,Z  2 {m}
                                        !- X,Y,Z  3 {m}

  FenestrationSurface:Detailed,
    WEST FRAMED 1,           !- Name
    Door,                    !- Surface Type
    EXTERIOR WALL (FRAMING), !- Construction Name
    Z1 WEST WALL BATTING,    !- Building Surface Name
    ,                        !- Outside Boundary Condition Object
    autocalculate,           !- View Factor to Ground
    ,                        !- Shading Control Name
    ,                        !- Frame and Divider Name
    ,                        !- Multiplier
    4,                       !- Number of Vertices
    0,7.61962839691078,0.609570271752862,  !- X,Y,Z ==> Vertex 1 {m}
    0,5.98902791997187,0.609570271752862,  !- X,Y,Z ==> Vertex 2 {m}
    0,5.98902791997187,1.82871081525859,  !- X,Y,Z ==> Vertex 3 {m}
    0,7.61962839691078,1.82871081525859;  !- X,Y,Z ==> Vertex 4 {m}

                                        !- X,Y,Z  4 {m}
                                        !- X,Y,Z  1 {m}
                                        !- X,Y,Z  2 {m}
                                        !- X,Y,Z  3 {m}

  FenestrationSurface:Detailed,
    WEST FRAMED 2,           !- Name
    Door,                    !- Surface Type
    EXTERIOR WALL (FRAMING), !- Construction Name
    Z1 WEST WALL BATTING,    !- Building Surface Name
    ,                        !- Outside Boundary Condition Object
    autocalculate,           !- View Factor to Ground
    ,                        !- Shading Control Name
    ,                        !- Frame and Divider Name
    ,                        !- Multiplier
    4,                       !- Number of Vertices
    0,2.13349595113502,0.609570271752862,  !- X,Y,Z ==> Vertex 1 {m}
    0,0.502895474196111,0.609570271752862,  !- X,Y,Z ==> Vertex 2 {m}
    0,0.502895474196111,1.82871081525859,  !- X,Y,Z ==> Vertex 3 {m}
    0,2.13349595113502,1.82871081525859;  !- X,Y,Z ==> Vertex 4 {m}

                                        !- X,Y,Z  4 {m}
                                        !- X,Y,Z  1 {m}
                                        !- X,Y,Z  2 {m}
                                        !- X,Y,Z  3 {m}

  FenestrationSurface:Detailed,
    WEST ALUM FRAME,         !- Name